version 2
run Distance-0-20140902-14:50:54-18680
attr configname Distance
attr datetime 20140902-14:50:54
attr experiment Distance
attr inifile omnetpp.ini
attr iterationvars ""
attr iterationvars2 $repetition=0
attr measurement ""
attr network src.modules.scenario.FranciscoScenario
attr processid 18680
attr repetition 0
attr replication #0
attr resultdir results
attr runnumber 0
attr seedset 0

scalar FranciscoScenario.node[0].appl 	newWarningReceivedSignal:count 	1
attr description  "New Warning Received"
scalar FranciscoScenario.node[0].appl 	messageReceivedSignal:count 	73
attr description  "Message Received"
scalar FranciscoScenario.node[0].appl 	beaconReceivedSignal:count 	0
attr description  "Beacon Received"
scalar FranciscoScenario.node[0].appl 	warningReceivedSignal:count 	73
attr description  "Warning Received"
scalar FranciscoScenario.node[0].nic.phy80211p 	busyTime 	0.01072986079968
scalar FranciscoScenario.node[0].nic.mac1609_4 	ReceivedUnicastPackets 	0
scalar FranciscoScenario.node[0].nic.mac1609_4 	ReceivedBroadcasts 	73
scalar FranciscoScenario.node[0].nic.mac1609_4 	SentPackets 	69
scalar FranciscoScenario.node[0].nic.mac1609_4 	SNIRLostPackets 	1735
scalar FranciscoScenario.node[0].nic.mac1609_4 	RXTXLostPackets 	155
scalar FranciscoScenario.node[0].nic.mac1609_4 	TotalLostPackets 	1890
scalar FranciscoScenario.node[0].nic.mac1609_4 	DroppedPacketsInMac 	0
scalar FranciscoScenario.node[0].nic.mac1609_4 	TooLittleTime 	0
scalar FranciscoScenario.node[0].nic.mac1609_4 	TimesIntoBackoff 	83
scalar FranciscoScenario.node[0].nic.mac1609_4 	SlotsBackoff 	285
scalar FranciscoScenario.node[0].nic.mac1609_4 	NumInternalContention 	0
scalar FranciscoScenario.node[0].nic.mac1609_4 	totalBusyTime 	0.10958112203
scalar FranciscoScenario.node[0].veinsmobility 	startTime 	0.1
scalar FranciscoScenario.node[0].veinsmobility 	totalTime 	20.2
scalar FranciscoScenario.node[0].veinsmobility 	stopTime 	20.353757457457
scalar FranciscoScenario.node[0].veinsmobility 	minSpeed 	0.25286542447004
scalar FranciscoScenario.node[0].veinsmobility 	maxSpeed 	13.882136146231
scalar FranciscoScenario.node[0].veinsmobility 	totalDistance 	171.86055663906
scalar FranciscoScenario.node[0].veinsmobility 	totalCO2Emission 	71.718236130751
scalar FranciscoScenario.node[1].appl 	newWarningReceivedSignal:count 	1
attr description  "New Warning Received"
scalar FranciscoScenario.node[1].appl 	messageReceivedSignal:count 	244
attr description  "Message Received"
scalar FranciscoScenario.node[1].appl 	beaconReceivedSignal:count 	0
attr description  "Beacon Received"
scalar FranciscoScenario.node[1].appl 	warningReceivedSignal:count 	244
attr description  "Warning Received"
scalar FranciscoScenario.node[1].nic.phy80211p 	busyTime 	0.0061764566875721
scalar FranciscoScenario.node[1].nic.mac1609_4 	ReceivedUnicastPackets 	0
scalar FranciscoScenario.node[1].nic.mac1609_4 	ReceivedBroadcasts 	244
scalar FranciscoScenario.node[1].nic.mac1609_4 	SentPackets 	191
scalar FranciscoScenario.node[1].nic.mac1609_4 	SNIRLostPackets 	746
scalar FranciscoScenario.node[1].nic.mac1609_4 	RXTXLostPackets 	252
scalar FranciscoScenario.node[1].nic.mac1609_4 	TotalLostPackets 	998
scalar FranciscoScenario.node[1].nic.mac1609_4 	DroppedPacketsInMac 	0
scalar FranciscoScenario.node[1].nic.mac1609_4 	TooLittleTime 	0
scalar FranciscoScenario.node[1].nic.mac1609_4 	TimesIntoBackoff 	192
scalar FranciscoScenario.node[1].nic.mac1609_4 	SlotsBackoff 	671
scalar FranciscoScenario.node[1].nic.mac1609_4 	NumInternalContention 	0
scalar FranciscoScenario.node[1].nic.mac1609_4 	totalBusyTime 	0.094963964589
scalar FranciscoScenario.node[1].veinsmobility 	startTime 	1.1
scalar FranciscoScenario.node[1].veinsmobility 	totalTime 	19.2
scalar FranciscoScenario.node[1].veinsmobility 	stopTime 	20.353757457457
scalar FranciscoScenario.node[1].veinsmobility 	minSpeed 	0.2550030377931
scalar FranciscoScenario.node[1].veinsmobility 	maxSpeed 	13.886874438564
scalar FranciscoScenario.node[1].veinsmobility 	totalDistance 	176.6836039258
scalar FranciscoScenario.node[1].veinsmobility 	totalCO2Emission 	75.4290358004
scalar FranciscoScenario.node[59].appl 	newWarningReceivedSignal:count 	1
attr description  "New Warning Received"
scalar FranciscoScenario.node[59].appl 	messageReceivedSignal:count 	46
attr description  "Message Received"
scalar FranciscoScenario.node[59].appl 	beaconReceivedSignal:count 	0
attr description  "Beacon Received"
scalar FranciscoScenario.node[59].appl 	warningReceivedSignal:count 	46
attr description  "Warning Received"
scalar FranciscoScenario.node[59].nic.phy80211p 	busyTime 	0.022107017749494
scalar FranciscoScenario.node[59].nic.mac1609_4 	ReceivedUnicastPackets 	0
scalar FranciscoScenario.node[59].nic.mac1609_4 	ReceivedBroadcasts 	46
scalar FranciscoScenario.node[59].nic.mac1609_4 	SentPackets 	46
scalar FranciscoScenario.node[59].nic.mac1609_4 	SNIRLostPackets 	1839
scalar FranciscoScenario.node[59].nic.mac1609_4 	RXTXLostPackets 	62
scalar FranciscoScenario.node[59].nic.mac1609_4 	TotalLostPackets 	1901
scalar FranciscoScenario.node[59].nic.mac1609_4 	DroppedPacketsInMac 	0
scalar FranciscoScenario.node[59].nic.mac1609_4 	TooLittleTime 	0
scalar FranciscoScenario.node[59].nic.mac1609_4 	TimesIntoBackoff 	52
scalar FranciscoScenario.node[59].nic.mac1609_4 	SlotsBackoff 	180
scalar FranciscoScenario.node[59].nic.mac1609_4 	NumInternalContention 	0
scalar FranciscoScenario.node[59].nic.mac1609_4 	totalBusyTime 	0.117805077427
scalar FranciscoScenario.node[59].veinsmobility 	startTime 	10.1
scalar FranciscoScenario.node[59].veinsmobility 	totalTime 	10.2
scalar FranciscoScenario.node[59].veinsmobility 	stopTime 	20.353757457457
scalar FranciscoScenario.node[59].veinsmobility 	minSpeed 	0.24847311813943
scalar FranciscoScenario.node[59].veinsmobility 	maxSpeed 	13.599439581569
scalar FranciscoScenario.node[59].veinsmobility 	totalDistance 	74.487288990734
scalar FranciscoScenario.node[59].veinsmobility 	totalCO2Emission 	36.005116195648
scalar FranciscoScenario.node[60].appl 	newWarningReceivedSignal:count 	1
attr description  "New Warning Received"
scalar FranciscoScenario.node[60].appl 	messageReceivedSignal:count 	173
attr description  "Message Received"
scalar FranciscoScenario.node[60].appl 	beaconReceivedSignal:count 	0
attr description  "Beacon Received"
scalar FranciscoScenario.node[60].appl 	warningReceivedSignal:count 	173
attr description  "Warning Received"
scalar FranciscoScenario.node[60].nic.phy80211p 	busyTime 	0.020501941972352
scalar FranciscoScenario.node[60].nic.mac1609_4 	ReceivedUnicastPackets 	0
scalar FranciscoScenario.node[60].nic.mac1609_4 	ReceivedBroadcasts 	173
scalar FranciscoScenario.node[60].nic.mac1609_4 	SentPackets 	0
scalar FranciscoScenario.node[60].nic.mac1609_4 	SNIRLostPackets 	1407
scalar FranciscoScenario.node[60].nic.mac1609_4 	RXTXLostPackets 	0
scalar FranciscoScenario.node[60].nic.mac1609_4 	TotalLostPackets 	1407
scalar FranciscoScenario.node[60].nic.mac1609_4 	DroppedPacketsInMac 	0
scalar FranciscoScenario.node[60].nic.mac1609_4 	TooLittleTime 	0
scalar FranciscoScenario.node[60].nic.mac1609_4 	TimesIntoBackoff 	0
scalar FranciscoScenario.node[60].nic.mac1609_4 	SlotsBackoff 	0
scalar FranciscoScenario.node[60].nic.mac1609_4 	NumInternalContention 	0
scalar FranciscoScenario.node[60].nic.mac1609_4 	totalBusyTime 	0.110856071999
scalar FranciscoScenario.node[60].veinsmobility 	startTime 	11.1
scalar FranciscoScenario.node[60].veinsmobility 	totalTime 	9.2
scalar FranciscoScenario.node[60].veinsmobility 	stopTime 	20.353757457457
scalar FranciscoScenario.node[60].veinsmobility 	minSpeed 	0.26
scalar FranciscoScenario.node[60].veinsmobility 	maxSpeed 	9.3684898173739
scalar FranciscoScenario.node[60].veinsmobility 	totalDistance 	40.401575236285
scalar FranciscoScenario.node[60].veinsmobility 	totalCO2Emission 	21.482013888135
scalar FranciscoScenario.node[61].appl 	newWarningReceivedSignal:count 	1
attr description  "New Warning Received"
scalar FranciscoScenario.node[61].appl 	messageReceivedSignal:count 	330
attr description  "Message Received"
scalar FranciscoScenario.node[61].appl 	beaconReceivedSignal:count 	0
attr description  "Beacon Received"
scalar FranciscoScenario.node[61].appl 	warningReceivedSignal:count 	330
attr description  "Warning Received"
scalar FranciscoScenario.node[61].nic.phy80211p 	busyTime 	0.0077491978407016
scalar FranciscoScenario.node[61].nic.mac1609_4 	ReceivedUnicastPackets 	0
scalar FranciscoScenario.node[61].nic.mac1609_4 	ReceivedBroadcasts 	330
scalar FranciscoScenario.node[61].nic.mac1609_4 	SentPackets 	305
scalar FranciscoScenario.node[61].nic.mac1609_4 	SNIRLostPackets 	202
scalar FranciscoScenario.node[61].nic.mac1609_4 	RXTXLostPackets 	116
scalar FranciscoScenario.node[61].nic.mac1609_4 	TotalLostPackets 	318
scalar FranciscoScenario.node[61].nic.mac1609_4 	DroppedPacketsInMac 	0
scalar FranciscoScenario.node[61].nic.mac1609_4 	TooLittleTime 	0
scalar FranciscoScenario.node[61].nic.mac1609_4 	TimesIntoBackoff 	314
scalar FranciscoScenario.node[61].nic.mac1609_4 	SlotsBackoff 	1124
scalar FranciscoScenario.node[61].nic.mac1609_4 	NumInternalContention 	0
scalar FranciscoScenario.node[61].nic.mac1609_4 	totalBusyTime 	0.087640833542
scalar FranciscoScenario.node[61].veinsmobility 	startTime 	12.1
scalar FranciscoScenario.node[61].veinsmobility 	totalTime 	8.2
scalar FranciscoScenario.node[61].veinsmobility 	stopTime 	20.353757457457
scalar FranciscoScenario.node[61].veinsmobility 	minSpeed 	0.24923093582457
scalar FranciscoScenario.node[61].veinsmobility 	maxSpeed 	11.179072449959
scalar FranciscoScenario.node[61].veinsmobility 	totalDistance 	61.684238945892
scalar FranciscoScenario.node[61].veinsmobility 	totalCO2Emission 	28.000335099535
scalar FranciscoScenario.node[62].appl 	newWarningReceivedSignal:count 	0
attr description  "New Warning Received"
scalar FranciscoScenario.node[62].appl 	messageReceivedSignal:count 	0
attr description  "Message Received"
scalar FranciscoScenario.node[62].appl 	beaconReceivedSignal:count 	0
attr description  "Beacon Received"
scalar FranciscoScenario.node[62].appl 	warningReceivedSignal:count 	0
attr description  "Warning Received"
scalar FranciscoScenario.node[62].nic.phy80211p 	busyTime 	0
scalar FranciscoScenario.node[62].nic.mac1609_4 	ReceivedUnicastPackets 	0
scalar FranciscoScenario.node[62].nic.mac1609_4 	ReceivedBroadcasts 	0
scalar FranciscoScenario.node[62].nic.mac1609_4 	SentPackets 	0
scalar FranciscoScenario.node[62].nic.mac1609_4 	SNIRLostPackets 	0
scalar FranciscoScenario.node[62].nic.mac1609_4 	RXTXLostPackets 	0
scalar FranciscoScenario.node[62].nic.mac1609_4 	TotalLostPackets 	0
scalar FranciscoScenario.node[62].nic.mac1609_4 	DroppedPacketsInMac 	0
scalar FranciscoScenario.node[62].nic.mac1609_4 	TooLittleTime 	0
scalar FranciscoScenario.node[62].nic.mac1609_4 	TimesIntoBackoff 	0
scalar FranciscoScenario.node[62].nic.mac1609_4 	SlotsBackoff 	0
scalar FranciscoScenario.node[62].nic.mac1609_4 	NumInternalContention 	0
scalar FranciscoScenario.node[62].nic.mac1609_4 	totalBusyTime 	0
scalar FranciscoScenario.node[62].veinsmobility 	startTime 	13.1
scalar FranciscoScenario.node[62].veinsmobility 	totalTime 	7.2
scalar FranciscoScenario.node[62].veinsmobility 	stopTime 	20.353757457457
scalar FranciscoScenario.node[62].veinsmobility 	minSpeed 	0.25672161749075
scalar FranciscoScenario.node[62].veinsmobility 	maxSpeed 	13.880945403904
scalar FranciscoScenario.node[62].veinsmobility 	totalDistance 	53.027204327694
scalar FranciscoScenario.node[62].veinsmobility 	totalCO2Emission 	34.367811503006
scalar FranciscoScenario.node[63].appl 	newWarningReceivedSignal:count 	0
attr description  "New Warning Received"
scalar FranciscoScenario.node[63].appl 	messageReceivedSignal:count 	0
attr description  "Message Received"
scalar FranciscoScenario.node[63].appl 	beaconReceivedSignal:count 	0
attr description  "Beacon Received"
scalar FranciscoScenario.node[63].appl 	warningReceivedSignal:count 	0
attr description  "Warning Received"
scalar FranciscoScenario.node[63].nic.phy80211p 	busyTime 	0
scalar FranciscoScenario.node[63].nic.mac1609_4 	ReceivedUnicastPackets 	0
scalar FranciscoScenario.node[63].nic.mac1609_4 	ReceivedBroadcasts 	0
scalar FranciscoScenario.node[63].nic.mac1609_4 	SentPackets 	0
scalar FranciscoScenario.node[63].nic.mac1609_4 	SNIRLostPackets 	0
scalar FranciscoScenario.node[63].nic.mac1609_4 	RXTXLostPackets 	0
scalar FranciscoScenario.node[63].nic.mac1609_4 	TotalLostPackets 	0
scalar FranciscoScenario.node[63].nic.mac1609_4 	DroppedPacketsInMac 	0
scalar FranciscoScenario.node[63].nic.mac1609_4 	TooLittleTime 	0
scalar FranciscoScenario.node[63].nic.mac1609_4 	TimesIntoBackoff 	0
scalar FranciscoScenario.node[63].nic.mac1609_4 	SlotsBackoff 	0
scalar FranciscoScenario.node[63].nic.mac1609_4 	NumInternalContention 	0
scalar FranciscoScenario.node[63].nic.mac1609_4 	totalBusyTime 	0
scalar FranciscoScenario.node[63].veinsmobility 	startTime 	14.1
scalar FranciscoScenario.node[63].veinsmobility 	totalTime 	6.2
scalar FranciscoScenario.node[63].veinsmobility 	stopTime 	20.353757457457
scalar FranciscoScenario.node[63].veinsmobility 	minSpeed 	0.25652519984264
scalar FranciscoScenario.node[63].veinsmobility 	maxSpeed 	12.719568513624
scalar FranciscoScenario.node[63].veinsmobility 	totalDistance 	41.10942066691
scalar FranciscoScenario.node[63].veinsmobility 	totalCO2Emission 	28.873405486903
scalar FranciscoScenario.node[64].appl 	newWarningReceivedSignal:count 	1
attr description  "New Warning Received"
scalar FranciscoScenario.node[64].appl 	messageReceivedSignal:count 	127
attr description  "Message Received"
scalar FranciscoScenario.node[64].appl 	beaconReceivedSignal:count 	0
attr description  "Beacon Received"
scalar FranciscoScenario.node[64].appl 	warningReceivedSignal:count 	127
attr description  "Warning Received"
scalar FranciscoScenario.node[64].nic.phy80211p 	busyTime 	0.035471755206836
scalar FranciscoScenario.node[64].nic.mac1609_4 	ReceivedUnicastPackets 	0
scalar FranciscoScenario.node[64].nic.mac1609_4 	ReceivedBroadcasts 	127
scalar FranciscoScenario.node[64].nic.mac1609_4 	SentPackets 	112
scalar FranciscoScenario.node[64].nic.mac1609_4 	SNIRLostPackets 	1424
scalar FranciscoScenario.node[64].nic.mac1609_4 	RXTXLostPackets 	191
scalar FranciscoScenario.node[64].nic.mac1609_4 	TotalLostPackets 	1615
scalar FranciscoScenario.node[64].nic.mac1609_4 	DroppedPacketsInMac 	0
scalar FranciscoScenario.node[64].nic.mac1609_4 	TooLittleTime 	0
scalar FranciscoScenario.node[64].nic.mac1609_4 	TimesIntoBackoff 	115
scalar FranciscoScenario.node[64].nic.mac1609_4 	SlotsBackoff 	451
scalar FranciscoScenario.node[64].nic.mac1609_4 	NumInternalContention 	0
scalar FranciscoScenario.node[64].nic.mac1609_4 	totalBusyTime 	0.104022474453
scalar FranciscoScenario.node[64].veinsmobility 	startTime 	15.1
scalar FranciscoScenario.node[64].veinsmobility 	totalTime 	5.2
scalar FranciscoScenario.node[64].veinsmobility 	stopTime 	20.353757457457
scalar FranciscoScenario.node[64].veinsmobility 	minSpeed 	0.25159090164513
scalar FranciscoScenario.node[64].veinsmobility 	maxSpeed 	10.444834430121
scalar FranciscoScenario.node[64].veinsmobility 	totalDistance 	28.632617206192
scalar FranciscoScenario.node[64].veinsmobility 	totalCO2Emission 	20.579066260952
scalar FranciscoScenario.node[65].appl 	newWarningReceivedSignal:count 	1
attr description  "New Warning Received"
scalar FranciscoScenario.node[65].appl 	messageReceivedSignal:count 	216
attr description  "Message Received"
scalar FranciscoScenario.node[65].appl 	beaconReceivedSignal:count 	0
attr description  "Beacon Received"
scalar FranciscoScenario.node[65].appl 	warningReceivedSignal:count 	216
attr description  "Warning Received"
scalar FranciscoScenario.node[65].nic.phy80211p 	busyTime 	0.032357274769325
scalar FranciscoScenario.node[65].nic.mac1609_4 	ReceivedUnicastPackets 	0
scalar FranciscoScenario.node[65].nic.mac1609_4 	ReceivedBroadcasts 	216
scalar FranciscoScenario.node[65].nic.mac1609_4 	SentPackets 	162
scalar FranciscoScenario.node[65].nic.mac1609_4 	SNIRLostPackets 	931
scalar FranciscoScenario.node[65].nic.mac1609_4 	RXTXLostPackets 	178
scalar FranciscoScenario.node[65].nic.mac1609_4 	TotalLostPackets 	1109
scalar FranciscoScenario.node[65].nic.mac1609_4 	DroppedPacketsInMac 	0
scalar FranciscoScenario.node[65].nic.mac1609_4 	TooLittleTime 	0
scalar FranciscoScenario.node[65].nic.mac1609_4 	TimesIntoBackoff 	161
scalar FranciscoScenario.node[65].nic.mac1609_4 	SlotsBackoff 	588
scalar FranciscoScenario.node[65].nic.mac1609_4 	NumInternalContention 	0
scalar FranciscoScenario.node[65].nic.mac1609_4 	totalBusyTime 	0.10045724283
scalar FranciscoScenario.node[65].veinsmobility 	startTime 	16.1
scalar FranciscoScenario.node[65].veinsmobility 	totalTime 	4.2
scalar FranciscoScenario.node[65].veinsmobility 	stopTime 	20.353757457457
scalar FranciscoScenario.node[65].veinsmobility 	minSpeed 	0.25179539743974
scalar FranciscoScenario.node[65].veinsmobility 	maxSpeed 	8.3740303134796
scalar FranciscoScenario.node[65].veinsmobility 	totalDistance 	18.641778043362
scalar FranciscoScenario.node[65].veinsmobility 	totalCO2Emission 	14.154545690316
scalar FranciscoScenario.node[66].appl 	newWarningReceivedSignal:count 	1
attr description  "New Warning Received"
scalar FranciscoScenario.node[66].appl 	messageReceivedSignal:count 	55
attr description  "Message Received"
scalar FranciscoScenario.node[66].appl 	beaconReceivedSignal:count 	0
attr description  "Beacon Received"
scalar FranciscoScenario.node[66].appl 	warningReceivedSignal:count 	55
attr description  "Warning Received"
scalar FranciscoScenario.node[66].nic.phy80211p 	busyTime 	0.071142364204344
scalar FranciscoScenario.node[66].nic.mac1609_4 	ReceivedUnicastPackets 	0
scalar FranciscoScenario.node[66].nic.mac1609_4 	ReceivedBroadcasts 	55
scalar FranciscoScenario.node[66].nic.mac1609_4 	SentPackets 	53
scalar FranciscoScenario.node[66].nic.mac1609_4 	SNIRLostPackets 	1871
scalar FranciscoScenario.node[66].nic.mac1609_4 	RXTXLostPackets 	93
scalar FranciscoScenario.node[66].nic.mac1609_4 	TotalLostPackets 	1964
scalar FranciscoScenario.node[66].nic.mac1609_4 	DroppedPacketsInMac 	0
scalar FranciscoScenario.node[66].nic.mac1609_4 	TooLittleTime 	0
scalar FranciscoScenario.node[66].nic.mac1609_4 	TimesIntoBackoff 	62
scalar FranciscoScenario.node[66].nic.mac1609_4 	SlotsBackoff 	233
scalar FranciscoScenario.node[66].nic.mac1609_4 	NumInternalContention 	0
scalar FranciscoScenario.node[66].nic.mac1609_4 	totalBusyTime 	0.115621622064
scalar FranciscoScenario.node[66].veinsmobility 	startTime 	17.1
scalar FranciscoScenario.node[66].veinsmobility 	totalTime 	3.2
scalar FranciscoScenario.node[66].veinsmobility 	stopTime 	20.353757457457
scalar FranciscoScenario.node[66].veinsmobility 	minSpeed 	0.25557297746348
scalar FranciscoScenario.node[66].veinsmobility 	maxSpeed 	6.7289004208499
scalar FranciscoScenario.node[66].veinsmobility 	totalDistance 	11.546265085777
scalar FranciscoScenario.node[66].veinsmobility 	totalCO2Emission 	9.6382486004419
scalar FranciscoScenario.node[67].appl 	newWarningReceivedSignal:count 	1
attr description  "New Warning Received"
scalar FranciscoScenario.node[67].appl 	messageReceivedSignal:count 	30
attr description  "Message Received"
scalar FranciscoScenario.node[67].appl 	beaconReceivedSignal:count 	0
attr description  "Beacon Received"
scalar FranciscoScenario.node[67].appl 	warningReceivedSignal:count 	30
attr description  "Warning Received"
scalar FranciscoScenario.node[67].nic.phy80211p 	busyTime 	0.11873504705862
scalar FranciscoScenario.node[67].nic.mac1609_4 	ReceivedUnicastPackets 	0
scalar FranciscoScenario.node[67].nic.mac1609_4 	ReceivedBroadcasts 	30
scalar FranciscoScenario.node[67].nic.mac1609_4 	SentPackets 	29
scalar FranciscoScenario.node[67].nic.mac1609_4 	SNIRLostPackets 	2197
scalar FranciscoScenario.node[67].nic.mac1609_4 	RXTXLostPackets 	43
scalar FranciscoScenario.node[67].nic.mac1609_4 	TotalLostPackets 	2240
scalar FranciscoScenario.node[67].nic.mac1609_4 	DroppedPacketsInMac 	0
scalar FranciscoScenario.node[67].nic.mac1609_4 	TooLittleTime 	0
scalar FranciscoScenario.node[67].nic.mac1609_4 	TimesIntoBackoff 	38
scalar FranciscoScenario.node[67].nic.mac1609_4 	SlotsBackoff 	108
scalar FranciscoScenario.node[67].nic.mac1609_4 	NumInternalContention 	0
scalar FranciscoScenario.node[67].nic.mac1609_4 	totalBusyTime 	0.121940484955
scalar FranciscoScenario.node[67].veinsmobility 	startTime 	18.1
scalar FranciscoScenario.node[67].veinsmobility 	totalTime 	2.2
scalar FranciscoScenario.node[67].veinsmobility 	stopTime 	20.353757457457
scalar FranciscoScenario.node[67].veinsmobility 	minSpeed 	0.25972339465399
scalar FranciscoScenario.node[67].veinsmobility 	maxSpeed 	4.6089525884841
scalar FranciscoScenario.node[67].veinsmobility 	totalDistance 	5.5309707886397
scalar FranciscoScenario.node[67].veinsmobility 	totalCO2Emission 	5.2658870519652
scalar FranciscoScenario.node[68].appl 	newWarningReceivedSignal:count 	0
attr description  "New Warning Received"
scalar FranciscoScenario.node[68].appl 	messageReceivedSignal:count 	0
attr description  "Message Received"
scalar FranciscoScenario.node[68].appl 	beaconReceivedSignal:count 	0
attr description  "Beacon Received"
scalar FranciscoScenario.node[68].appl 	warningReceivedSignal:count 	0
attr description  "Warning Received"
scalar FranciscoScenario.node[68].nic.phy80211p 	busyTime 	0
scalar FranciscoScenario.node[68].nic.mac1609_4 	ReceivedUnicastPackets 	0
scalar FranciscoScenario.node[68].nic.mac1609_4 	ReceivedBroadcasts 	0
scalar FranciscoScenario.node[68].nic.mac1609_4 	SentPackets 	0
scalar FranciscoScenario.node[68].nic.mac1609_4 	SNIRLostPackets 	0
scalar FranciscoScenario.node[68].nic.mac1609_4 	RXTXLostPackets 	0
scalar FranciscoScenario.node[68].nic.mac1609_4 	TotalLostPackets 	0
scalar FranciscoScenario.node[68].nic.mac1609_4 	DroppedPacketsInMac 	0
scalar FranciscoScenario.node[68].nic.mac1609_4 	TooLittleTime 	0
scalar FranciscoScenario.node[68].nic.mac1609_4 	TimesIntoBackoff 	0
scalar FranciscoScenario.node[68].nic.mac1609_4 	SlotsBackoff 	0
scalar FranciscoScenario.node[68].nic.mac1609_4 	NumInternalContention 	0
scalar FranciscoScenario.node[68].nic.mac1609_4 	totalBusyTime 	0
scalar FranciscoScenario.node[68].veinsmobility 	startTime 	19.1
scalar FranciscoScenario.node[68].veinsmobility 	totalTime 	1.2
scalar FranciscoScenario.node[68].veinsmobility 	stopTime 	20.353757457457
scalar FranciscoScenario.node[68].veinsmobility 	minSpeed 	0.25043899509404
scalar FranciscoScenario.node[68].veinsmobility 	maxSpeed 	2.6158672593516
scalar FranciscoScenario.node[68].veinsmobility 	totalDistance 	1.7737461085827
scalar FranciscoScenario.node[68].veinsmobility 	totalCO2Emission 	2.1852300280827
scalar FranciscoScenario.node[43].appl 	newWarningReceivedSignal:count 	1
attr description  "New Warning Received"
scalar FranciscoScenario.node[43].appl 	messageReceivedSignal:count 	126
attr description  "Message Received"
scalar FranciscoScenario.node[43].appl 	beaconReceivedSignal:count 	0
attr description  "Beacon Received"
scalar FranciscoScenario.node[43].appl 	warningReceivedSignal:count 	126
attr description  "Warning Received"
scalar FranciscoScenario.node[43].nic.phy80211p 	busyTime 	0.010847081693261
scalar FranciscoScenario.node[43].nic.mac1609_4 	ReceivedUnicastPackets 	0
scalar FranciscoScenario.node[43].nic.mac1609_4 	ReceivedBroadcasts 	126
scalar FranciscoScenario.node[43].nic.mac1609_4 	SentPackets 	104
scalar FranciscoScenario.node[43].nic.mac1609_4 	SNIRLostPackets 	1522
scalar FranciscoScenario.node[43].nic.mac1609_4 	RXTXLostPackets 	209
scalar FranciscoScenario.node[43].nic.mac1609_4 	TotalLostPackets 	1731
scalar FranciscoScenario.node[43].nic.mac1609_4 	DroppedPacketsInMac 	0
scalar FranciscoScenario.node[43].nic.mac1609_4 	TooLittleTime 	0
scalar FranciscoScenario.node[43].nic.mac1609_4 	TimesIntoBackoff 	107
scalar FranciscoScenario.node[43].nic.mac1609_4 	SlotsBackoff 	412
scalar FranciscoScenario.node[43].nic.mac1609_4 	NumInternalContention 	0
scalar FranciscoScenario.node[43].nic.mac1609_4 	totalBusyTime 	0.10676613353
scalar FranciscoScenario.node[43].veinsmobility 	startTime 	2.1
scalar FranciscoScenario.node[43].veinsmobility 	totalTime 	18.2
scalar FranciscoScenario.node[43].veinsmobility 	stopTime 	20.353757457457
scalar FranciscoScenario.node[43].veinsmobility 	minSpeed 	0.2518232359637
scalar FranciscoScenario.node[43].veinsmobility 	maxSpeed 	13.888054884691
scalar FranciscoScenario.node[43].veinsmobility 	totalDistance 	145.25241267827
scalar FranciscoScenario.node[43].veinsmobility 	totalCO2Emission 	73.277266621691
scalar FranciscoScenario.node[69].appl 	newWarningReceivedSignal:count 	1
attr description  "New Warning Received"
scalar FranciscoScenario.node[69].appl 	messageReceivedSignal:count 	151
attr description  "Message Received"
scalar FranciscoScenario.node[69].appl 	beaconReceivedSignal:count 	0
attr description  "Beacon Received"
scalar FranciscoScenario.node[69].appl 	warningReceivedSignal:count 	151
attr description  "Warning Received"
scalar FranciscoScenario.node[69].nic.phy80211p 	busyTime 	0.62043496283872
scalar FranciscoScenario.node[69].nic.mac1609_4 	ReceivedUnicastPackets 	0
scalar FranciscoScenario.node[69].nic.mac1609_4 	ReceivedBroadcasts 	151
scalar FranciscoScenario.node[69].nic.mac1609_4 	SentPackets 	142
scalar FranciscoScenario.node[69].nic.mac1609_4 	SNIRLostPackets 	1161
scalar FranciscoScenario.node[69].nic.mac1609_4 	RXTXLostPackets 	190
scalar FranciscoScenario.node[69].nic.mac1609_4 	TotalLostPackets 	1351
scalar FranciscoScenario.node[69].nic.mac1609_4 	DroppedPacketsInMac 	0
scalar FranciscoScenario.node[69].nic.mac1609_4 	TooLittleTime 	0
scalar FranciscoScenario.node[69].nic.mac1609_4 	TimesIntoBackoff 	146
scalar FranciscoScenario.node[69].nic.mac1609_4 	SlotsBackoff 	497
scalar FranciscoScenario.node[69].nic.mac1609_4 	NumInternalContention 	0
scalar FranciscoScenario.node[69].nic.mac1609_4 	totalBusyTime 	0.101774852613
scalar FranciscoScenario.node[69].veinsmobility 	startTime 	20.1
scalar FranciscoScenario.node[69].veinsmobility 	totalTime 	0.2
scalar FranciscoScenario.node[69].veinsmobility 	stopTime 	20.353757457457
scalar FranciscoScenario.node[69].veinsmobility 	minSpeed 	0.24980425763037
scalar FranciscoScenario.node[69].veinsmobility 	maxSpeed 	0.48777491797001
scalar FranciscoScenario.node[69].veinsmobility 	totalDistance 	0.073759548972141
scalar FranciscoScenario.node[69].veinsmobility 	totalCO2Emission 	0.14132844305157
scalar FranciscoScenario.node[51].appl 	newWarningReceivedSignal:count 	1
attr description  "New Warning Received"
scalar FranciscoScenario.node[51].appl 	messageReceivedSignal:count 	55
attr description  "Message Received"
scalar FranciscoScenario.node[51].appl 	beaconReceivedSignal:count 	0
attr description  "Beacon Received"
scalar FranciscoScenario.node[51].appl 	warningReceivedSignal:count 	55
attr description  "Warning Received"
scalar FranciscoScenario.node[51].nic.phy80211p 	busyTime 	0.014181258694769
scalar FranciscoScenario.node[51].nic.mac1609_4 	ReceivedUnicastPackets 	0
scalar FranciscoScenario.node[51].nic.mac1609_4 	ReceivedBroadcasts 	55
scalar FranciscoScenario.node[51].nic.mac1609_4 	SentPackets 	52
scalar FranciscoScenario.node[51].nic.mac1609_4 	SNIRLostPackets 	1981
scalar FranciscoScenario.node[51].nic.mac1609_4 	RXTXLostPackets 	120
scalar FranciscoScenario.node[51].nic.mac1609_4 	TotalLostPackets 	2101
scalar FranciscoScenario.node[51].nic.mac1609_4 	DroppedPacketsInMac 	0
scalar FranciscoScenario.node[51].nic.mac1609_4 	TooLittleTime 	0
scalar FranciscoScenario.node[51].nic.mac1609_4 	TimesIntoBackoff 	62
scalar FranciscoScenario.node[51].nic.mac1609_4 	SlotsBackoff 	204
scalar FranciscoScenario.node[51].nic.mac1609_4 	NumInternalContention 	0
scalar FranciscoScenario.node[51].nic.mac1609_4 	totalBusyTime 	0.115473763538
scalar FranciscoScenario.node[51].veinsmobility 	startTime 	3.1
scalar FranciscoScenario.node[51].veinsmobility 	totalTime 	17.2
scalar FranciscoScenario.node[51].veinsmobility 	stopTime 	20.353757457457
scalar FranciscoScenario.node[51].veinsmobility 	minSpeed 	0.25363637881423
scalar FranciscoScenario.node[51].veinsmobility 	maxSpeed 	13.888158064948
scalar FranciscoScenario.node[51].veinsmobility 	totalDistance 	190.88360519707
scalar FranciscoScenario.node[51].veinsmobility 	totalCO2Emission 	57.448359590147
scalar FranciscoScenario.node[52].appl 	newWarningReceivedSignal:count 	1
attr description  "New Warning Received"
scalar FranciscoScenario.node[52].appl 	messageReceivedSignal:count 	38
attr description  "Message Received"
scalar FranciscoScenario.node[52].appl 	beaconReceivedSignal:count 	0
attr description  "Beacon Received"
scalar FranciscoScenario.node[52].appl 	warningReceivedSignal:count 	38
attr description  "Warning Received"
scalar FranciscoScenario.node[52].nic.phy80211p 	busyTime 	0.015046366884833
scalar FranciscoScenario.node[52].nic.mac1609_4 	ReceivedUnicastPackets 	0
scalar FranciscoScenario.node[52].nic.mac1609_4 	ReceivedBroadcasts 	38
scalar FranciscoScenario.node[52].nic.mac1609_4 	SentPackets 	36
scalar FranciscoScenario.node[52].nic.mac1609_4 	SNIRLostPackets 	1998
scalar FranciscoScenario.node[52].nic.mac1609_4 	RXTXLostPackets 	48
scalar FranciscoScenario.node[52].nic.mac1609_4 	TotalLostPackets 	2046
scalar FranciscoScenario.node[52].nic.mac1609_4 	DroppedPacketsInMac 	0
scalar FranciscoScenario.node[52].nic.mac1609_4 	TooLittleTime 	0
scalar FranciscoScenario.node[52].nic.mac1609_4 	TimesIntoBackoff 	43
scalar FranciscoScenario.node[52].nic.mac1609_4 	SlotsBackoff 	164
scalar FranciscoScenario.node[52].nic.mac1609_4 	NumInternalContention 	0
scalar FranciscoScenario.node[52].nic.mac1609_4 	totalBusyTime 	0.11841089331
scalar FranciscoScenario.node[52].veinsmobility 	startTime 	4.1
scalar FranciscoScenario.node[52].veinsmobility 	totalTime 	16.2
scalar FranciscoScenario.node[52].veinsmobility 	stopTime 	20.353757457457
scalar FranciscoScenario.node[52].veinsmobility 	minSpeed 	0.25800620454736
scalar FranciscoScenario.node[52].veinsmobility 	maxSpeed 	13.473294986444
scalar FranciscoScenario.node[52].veinsmobility 	totalDistance 	116.3888312805
scalar FranciscoScenario.node[52].veinsmobility 	totalCO2Emission 	62.61726555417
scalar FranciscoScenario.node[54].appl 	newWarningReceivedSignal:count 	1
attr description  "New Warning Received"
scalar FranciscoScenario.node[54].appl 	messageReceivedSignal:count 	91
attr description  "Message Received"
scalar FranciscoScenario.node[54].appl 	beaconReceivedSignal:count 	0
attr description  "Beacon Received"
scalar FranciscoScenario.node[54].appl 	warningReceivedSignal:count 	91
attr description  "Warning Received"
scalar FranciscoScenario.node[54].nic.phy80211p 	busyTime 	0.013090544994761
scalar FranciscoScenario.node[54].nic.mac1609_4 	ReceivedUnicastPackets 	0
scalar FranciscoScenario.node[54].nic.mac1609_4 	ReceivedBroadcasts 	91
scalar FranciscoScenario.node[54].nic.mac1609_4 	SentPackets 	91
scalar FranciscoScenario.node[54].nic.mac1609_4 	SNIRLostPackets 	1570
scalar FranciscoScenario.node[54].nic.mac1609_4 	RXTXLostPackets 	172
scalar FranciscoScenario.node[54].nic.mac1609_4 	TotalLostPackets 	1742
scalar FranciscoScenario.node[54].nic.mac1609_4 	DroppedPacketsInMac 	0
scalar FranciscoScenario.node[54].nic.mac1609_4 	TooLittleTime 	0
scalar FranciscoScenario.node[54].nic.mac1609_4 	TimesIntoBackoff 	95
scalar FranciscoScenario.node[54].nic.mac1609_4 	SlotsBackoff 	336
scalar FranciscoScenario.node[54].nic.mac1609_4 	NumInternalContention 	0
scalar FranciscoScenario.node[54].nic.mac1609_4 	totalBusyTime 	0.106950079693
scalar FranciscoScenario.node[54].veinsmobility 	startTime 	5.1
scalar FranciscoScenario.node[54].veinsmobility 	totalTime 	15.2
scalar FranciscoScenario.node[54].veinsmobility 	stopTime 	20.353757457457
scalar FranciscoScenario.node[54].veinsmobility 	minSpeed 	0.25824735762156
scalar FranciscoScenario.node[54].veinsmobility 	maxSpeed 	11.178519032628
scalar FranciscoScenario.node[54].veinsmobility 	totalDistance 	138.80113804569
scalar FranciscoScenario.node[54].veinsmobility 	totalCO2Emission 	42.49079780699
scalar FranciscoScenario.node[57].appl 	newWarningReceivedSignal:count 	1
attr description  "New Warning Received"
scalar FranciscoScenario.node[57].appl 	messageReceivedSignal:count 	314
attr description  "Message Received"
scalar FranciscoScenario.node[57].appl 	beaconReceivedSignal:count 	0
attr description  "Beacon Received"
scalar FranciscoScenario.node[57].appl 	warningReceivedSignal:count 	314
attr description  "Warning Received"
scalar FranciscoScenario.node[57].nic.phy80211p 	busyTime 	0.0085019131592534
scalar FranciscoScenario.node[57].nic.mac1609_4 	ReceivedUnicastPackets 	0
scalar FranciscoScenario.node[57].nic.mac1609_4 	ReceivedBroadcasts 	314
scalar FranciscoScenario.node[57].nic.mac1609_4 	SentPackets 	229
scalar FranciscoScenario.node[57].nic.mac1609_4 	SNIRLostPackets 	539
scalar FranciscoScenario.node[57].nic.mac1609_4 	RXTXLostPackets 	236
scalar FranciscoScenario.node[57].nic.mac1609_4 	TotalLostPackets 	775
scalar FranciscoScenario.node[57].nic.mac1609_4 	DroppedPacketsInMac 	0
scalar FranciscoScenario.node[57].nic.mac1609_4 	TooLittleTime 	0
scalar FranciscoScenario.node[57].nic.mac1609_4 	TimesIntoBackoff 	232
scalar FranciscoScenario.node[57].nic.mac1609_4 	SlotsBackoff 	800
scalar FranciscoScenario.node[57].nic.mac1609_4 	NumInternalContention 	0
scalar FranciscoScenario.node[57].nic.mac1609_4 	totalBusyTime 	0.091029212324
scalar FranciscoScenario.node[57].veinsmobility 	startTime 	8.3
scalar FranciscoScenario.node[57].veinsmobility 	totalTime 	12
scalar FranciscoScenario.node[57].veinsmobility 	stopTime 	20.353757457457
scalar FranciscoScenario.node[57].veinsmobility 	minSpeed 	0.25209376937966
scalar FranciscoScenario.node[57].veinsmobility 	maxSpeed 	13.88972369859
scalar FranciscoScenario.node[57].veinsmobility 	totalDistance 	119.88054117412
scalar FranciscoScenario.node[57].veinsmobility 	totalCO2Emission 	45.616005710493
scalar FranciscoScenario.node[55].appl 	newWarningReceivedSignal:count 	1
attr description  "New Warning Received"
scalar FranciscoScenario.node[55].appl 	messageReceivedSignal:count 	133
attr description  "Message Received"
scalar FranciscoScenario.node[55].appl 	beaconReceivedSignal:count 	0
attr description  "Beacon Received"
scalar FranciscoScenario.node[55].appl 	warningReceivedSignal:count 	133
attr description  "Warning Received"
scalar FranciscoScenario.node[55].nic.phy80211p 	busyTime 	0.014857673304427
scalar FranciscoScenario.node[55].nic.mac1609_4 	ReceivedUnicastPackets 	0
scalar FranciscoScenario.node[55].nic.mac1609_4 	ReceivedBroadcasts 	133
scalar FranciscoScenario.node[55].nic.mac1609_4 	SentPackets 	115
scalar FranciscoScenario.node[55].nic.mac1609_4 	SNIRLostPackets 	1504
scalar FranciscoScenario.node[55].nic.mac1609_4 	RXTXLostPackets 	222
scalar FranciscoScenario.node[55].nic.mac1609_4 	TotalLostPackets 	1726
scalar FranciscoScenario.node[55].nic.mac1609_4 	DroppedPacketsInMac 	0
scalar FranciscoScenario.node[55].nic.mac1609_4 	TooLittleTime 	0
scalar FranciscoScenario.node[55].nic.mac1609_4 	TimesIntoBackoff 	120
scalar FranciscoScenario.node[55].nic.mac1609_4 	SlotsBackoff 	426
scalar FranciscoScenario.node[55].nic.mac1609_4 	NumInternalContention 	0
scalar FranciscoScenario.node[55].nic.mac1609_4 	totalBusyTime 	0.105878655137
scalar FranciscoScenario.node[55].veinsmobility 	startTime 	7.1
scalar FranciscoScenario.node[55].veinsmobility 	totalTime 	13.2
scalar FranciscoScenario.node[55].veinsmobility 	stopTime 	20.353757457457
scalar FranciscoScenario.node[55].veinsmobility 	minSpeed 	0.2488235808555
scalar FranciscoScenario.node[55].veinsmobility 	maxSpeed 	13.887267420811
scalar FranciscoScenario.node[55].veinsmobility 	totalDistance 	136.11286039206
scalar FranciscoScenario.node[55].veinsmobility 	totalCO2Emission 	48.506953742625
scalar FranciscoScenario.node[56].appl 	newWarningReceivedSignal:count 	1
attr description  "New Warning Received"
scalar FranciscoScenario.node[56].appl 	messageReceivedSignal:count 	37
attr description  "Message Received"
scalar FranciscoScenario.node[56].appl 	beaconReceivedSignal:count 	0
attr description  "Beacon Received"
scalar FranciscoScenario.node[56].appl 	warningReceivedSignal:count 	37
attr description  "Warning Received"
scalar FranciscoScenario.node[56].nic.phy80211p 	busyTime 	0.025990395064673
scalar FranciscoScenario.node[56].nic.mac1609_4 	ReceivedUnicastPackets 	0
scalar FranciscoScenario.node[56].nic.mac1609_4 	ReceivedBroadcasts 	37
scalar FranciscoScenario.node[56].nic.mac1609_4 	SentPackets 	35
scalar FranciscoScenario.node[56].nic.mac1609_4 	SNIRLostPackets 	2615
scalar FranciscoScenario.node[56].nic.mac1609_4 	RXTXLostPackets 	82
scalar FranciscoScenario.node[56].nic.mac1609_4 	TotalLostPackets 	2697
scalar FranciscoScenario.node[56].nic.mac1609_4 	DroppedPacketsInMac 	0
scalar FranciscoScenario.node[56].nic.mac1609_4 	TooLittleTime 	0
scalar FranciscoScenario.node[56].nic.mac1609_4 	TimesIntoBackoff 	44
scalar FranciscoScenario.node[56].nic.mac1609_4 	SlotsBackoff 	158
scalar FranciscoScenario.node[56].nic.mac1609_4 	NumInternalContention 	0
scalar FranciscoScenario.node[56].nic.mac1609_4 	totalBusyTime 	0.120955123612
scalar FranciscoScenario.node[56].veinsmobility 	startTime 	8.1
scalar FranciscoScenario.node[56].veinsmobility 	totalTime 	12.2
scalar FranciscoScenario.node[56].veinsmobility 	stopTime 	20.353757457457
scalar FranciscoScenario.node[56].veinsmobility 	minSpeed 	0.2494183260405
scalar FranciscoScenario.node[56].veinsmobility 	maxSpeed 	13.530464517906
scalar FranciscoScenario.node[56].veinsmobility 	totalDistance 	85.486693667777
scalar FranciscoScenario.node[56].veinsmobility 	totalCO2Emission 	43.879456840922
scalar FranciscoScenario.node[58].appl 	newWarningReceivedSignal:count 	1
attr description  "New Warning Received"
scalar FranciscoScenario.node[58].appl 	messageReceivedSignal:count 	85
attr description  "Message Received"
scalar FranciscoScenario.node[58].appl 	beaconReceivedSignal:count 	0
attr description  "Beacon Received"
scalar FranciscoScenario.node[58].appl 	warningReceivedSignal:count 	85
attr description  "Warning Received"
scalar FranciscoScenario.node[58].nic.phy80211p 	busyTime 	0.023949334146651
scalar FranciscoScenario.node[58].nic.mac1609_4 	ReceivedUnicastPackets 	0
scalar FranciscoScenario.node[58].nic.mac1609_4 	ReceivedBroadcasts 	85
scalar FranciscoScenario.node[58].nic.mac1609_4 	SentPackets 	64
scalar FranciscoScenario.node[58].nic.mac1609_4 	SNIRLostPackets 	2159
scalar FranciscoScenario.node[58].nic.mac1609_4 	RXTXLostPackets 	85
scalar FranciscoScenario.node[58].nic.mac1609_4 	TotalLostPackets 	2244
scalar FranciscoScenario.node[58].nic.mac1609_4 	DroppedPacketsInMac 	0
scalar FranciscoScenario.node[58].nic.mac1609_4 	TooLittleTime 	0
scalar FranciscoScenario.node[58].nic.mac1609_4 	TimesIntoBackoff 	67
scalar FranciscoScenario.node[58].nic.mac1609_4 	SlotsBackoff 	226
scalar FranciscoScenario.node[58].nic.mac1609_4 	NumInternalContention 	0
scalar FranciscoScenario.node[58].nic.mac1609_4 	totalBusyTime 	0.120322113715
scalar FranciscoScenario.node[58].veinsmobility 	startTime 	9.1
scalar FranciscoScenario.node[58].veinsmobility 	totalTime 	11.2
scalar FranciscoScenario.node[58].veinsmobility 	stopTime 	20.353757457457
scalar FranciscoScenario.node[58].veinsmobility 	minSpeed 	0.0098437670205336
scalar FranciscoScenario.node[58].veinsmobility 	maxSpeed 	6.9078715597162
scalar FranciscoScenario.node[58].veinsmobility 	totalDistance 	24.435530707529
scalar FranciscoScenario.node[58].veinsmobility 	totalCO2Emission 	18.150487684148
scalar FranciscoScenario.node[2].appl 	newWarningReceivedSignal:count 	1
attr description  "New Warning Received"
scalar FranciscoScenario.node[2].appl 	messageReceivedSignal:count 	159
attr description  "Message Received"
scalar FranciscoScenario.node[2].appl 	beaconReceivedSignal:count 	0
attr description  "Beacon Received"
scalar FranciscoScenario.node[2].appl 	warningReceivedSignal:count 	159
attr description  "Warning Received"
scalar FranciscoScenario.node[2].nic.phy80211p 	busyTime 	0.0097108882611224
scalar FranciscoScenario.node[2].nic.mac1609_4 	ReceivedUnicastPackets 	0
scalar FranciscoScenario.node[2].nic.mac1609_4 	ReceivedBroadcasts 	159
scalar FranciscoScenario.node[2].nic.mac1609_4 	SentPackets 	118
scalar FranciscoScenario.node[2].nic.mac1609_4 	SNIRLostPackets 	1389
scalar FranciscoScenario.node[2].nic.mac1609_4 	RXTXLostPackets 	217
scalar FranciscoScenario.node[2].nic.mac1609_4 	TotalLostPackets 	1606
scalar FranciscoScenario.node[2].nic.mac1609_4 	DroppedPacketsInMac 	0
scalar FranciscoScenario.node[2].nic.mac1609_4 	TooLittleTime 	0
scalar FranciscoScenario.node[2].nic.mac1609_4 	TimesIntoBackoff 	120
scalar FranciscoScenario.node[2].nic.mac1609_4 	SlotsBackoff 	368
scalar FranciscoScenario.node[2].nic.mac1609_4 	NumInternalContention 	0
scalar FranciscoScenario.node[2].nic.mac1609_4 	totalBusyTime 	0.107984241564
scalar FranciscoScenario.node[2].veinsmobility 	startTime 	1.2
scalar FranciscoScenario.node[2].veinsmobility 	totalTime 	19.1
scalar FranciscoScenario.node[2].veinsmobility 	stopTime 	20.353757457457
scalar FranciscoScenario.node[2].veinsmobility 	minSpeed 	2.9557790053211
scalar FranciscoScenario.node[2].veinsmobility 	maxSpeed 	13.887401602597
scalar FranciscoScenario.node[2].veinsmobility 	totalDistance 	174.60497094424
scalar FranciscoScenario.node[2].veinsmobility 	totalCO2Emission 	56.63879198641
scalar FranciscoScenario.node[44].appl 	newWarningReceivedSignal:count 	1
attr description  "New Warning Received"
scalar FranciscoScenario.node[44].appl 	messageReceivedSignal:count 	172
attr description  "Message Received"
scalar FranciscoScenario.node[44].appl 	beaconReceivedSignal:count 	0
attr description  "Beacon Received"
scalar FranciscoScenario.node[44].appl 	warningReceivedSignal:count 	172
attr description  "Warning Received"
scalar FranciscoScenario.node[44].nic.phy80211p 	busyTime 	0.010678055618137
scalar FranciscoScenario.node[44].nic.mac1609_4 	ReceivedUnicastPackets 	0
scalar FranciscoScenario.node[44].nic.mac1609_4 	ReceivedBroadcasts 	172
scalar FranciscoScenario.node[44].nic.mac1609_4 	SentPackets 	115
scalar FranciscoScenario.node[44].nic.mac1609_4 	SNIRLostPackets 	1388
scalar FranciscoScenario.node[44].nic.mac1609_4 	RXTXLostPackets 	208
scalar FranciscoScenario.node[44].nic.mac1609_4 	TotalLostPackets 	1596
scalar FranciscoScenario.node[44].nic.mac1609_4 	DroppedPacketsInMac 	0
scalar FranciscoScenario.node[44].nic.mac1609_4 	TooLittleTime 	0
scalar FranciscoScenario.node[44].nic.mac1609_4 	TimesIntoBackoff 	118
scalar FranciscoScenario.node[44].nic.mac1609_4 	SlotsBackoff 	373
scalar FranciscoScenario.node[44].nic.mac1609_4 	NumInternalContention 	0
scalar FranciscoScenario.node[44].nic.mac1609_4 	totalBusyTime 	0.107967088819
scalar FranciscoScenario.node[44].veinsmobility 	startTime 	2.8
scalar FranciscoScenario.node[44].veinsmobility 	totalTime 	17.5
scalar FranciscoScenario.node[44].veinsmobility 	stopTime 	20.353757457457
scalar FranciscoScenario.node[44].veinsmobility 	minSpeed 	3.0542071185632
scalar FranciscoScenario.node[44].veinsmobility 	maxSpeed 	13.889029118798
scalar FranciscoScenario.node[44].veinsmobility 	totalDistance 	154.74170564415
scalar FranciscoScenario.node[44].veinsmobility 	totalCO2Emission 	47.471575123599
scalar FranciscoScenario.node[3].appl 	newWarningReceivedSignal:count 	0
attr description  "New Warning Received"
scalar FranciscoScenario.node[3].appl 	messageReceivedSignal:count 	0
attr description  "Message Received"
scalar FranciscoScenario.node[3].appl 	beaconReceivedSignal:count 	0
attr description  "Beacon Received"
scalar FranciscoScenario.node[3].appl 	warningReceivedSignal:count 	0
attr description  "Warning Received"
scalar FranciscoScenario.node[3].nic.phy80211p 	busyTime 	0
scalar FranciscoScenario.node[3].nic.mac1609_4 	ReceivedUnicastPackets 	0
scalar FranciscoScenario.node[3].nic.mac1609_4 	ReceivedBroadcasts 	0
scalar FranciscoScenario.node[3].nic.mac1609_4 	SentPackets 	0
scalar FranciscoScenario.node[3].nic.mac1609_4 	SNIRLostPackets 	0
scalar FranciscoScenario.node[3].nic.mac1609_4 	RXTXLostPackets 	0
scalar FranciscoScenario.node[3].nic.mac1609_4 	TotalLostPackets 	0
scalar FranciscoScenario.node[3].nic.mac1609_4 	DroppedPacketsInMac 	0
scalar FranciscoScenario.node[3].nic.mac1609_4 	TooLittleTime 	0
scalar FranciscoScenario.node[3].nic.mac1609_4 	TimesIntoBackoff 	0
scalar FranciscoScenario.node[3].nic.mac1609_4 	SlotsBackoff 	0
scalar FranciscoScenario.node[3].nic.mac1609_4 	NumInternalContention 	0
scalar FranciscoScenario.node[3].nic.mac1609_4 	totalBusyTime 	0
scalar FranciscoScenario.node[3].veinsmobility 	startTime 	1.2
scalar FranciscoScenario.node[3].veinsmobility 	totalTime 	19.1
scalar FranciscoScenario.node[3].veinsmobility 	stopTime 	20.353757457457
scalar FranciscoScenario.node[3].veinsmobility 	minSpeed 	13.760013352782
scalar FranciscoScenario.node[3].veinsmobility 	maxSpeed 	13.889820163865
scalar FranciscoScenario.node[3].veinsmobility 	totalDistance 	264.03753259536
scalar FranciscoScenario.node[3].veinsmobility 	totalCO2Emission 	44.029263626418
scalar FranciscoScenario.node[4].appl 	newWarningReceivedSignal:count 	1
attr description  "New Warning Received"
scalar FranciscoScenario.node[4].appl 	messageReceivedSignal:count 	317
attr description  "Message Received"
scalar FranciscoScenario.node[4].appl 	beaconReceivedSignal:count 	0
attr description  "Beacon Received"
scalar FranciscoScenario.node[4].appl 	warningReceivedSignal:count 	317
attr description  "Warning Received"
scalar FranciscoScenario.node[4].nic.phy80211p 	busyTime 	0.0054631577830314
scalar FranciscoScenario.node[4].nic.mac1609_4 	ReceivedUnicastPackets 	0
scalar FranciscoScenario.node[4].nic.mac1609_4 	ReceivedBroadcasts 	317
scalar FranciscoScenario.node[4].nic.mac1609_4 	SentPackets 	211
scalar FranciscoScenario.node[4].nic.mac1609_4 	SNIRLostPackets 	555
scalar FranciscoScenario.node[4].nic.mac1609_4 	RXTXLostPackets 	236
scalar FranciscoScenario.node[4].nic.mac1609_4 	TotalLostPackets 	791
scalar FranciscoScenario.node[4].nic.mac1609_4 	DroppedPacketsInMac 	0
scalar FranciscoScenario.node[4].nic.mac1609_4 	TooLittleTime 	0
scalar FranciscoScenario.node[4].nic.mac1609_4 	TimesIntoBackoff 	211
scalar FranciscoScenario.node[4].nic.mac1609_4 	SlotsBackoff 	815
scalar FranciscoScenario.node[4].nic.mac1609_4 	NumInternalContention 	0
scalar FranciscoScenario.node[4].nic.mac1609_4 	totalBusyTime 	0.091013197919
scalar FranciscoScenario.node[4].veinsmobility 	startTime 	1.2
scalar FranciscoScenario.node[4].veinsmobility 	totalTime 	19.1
scalar FranciscoScenario.node[4].veinsmobility 	stopTime 	20.353757457457
scalar FranciscoScenario.node[4].veinsmobility 	minSpeed 	13.760994894973
scalar FranciscoScenario.node[4].veinsmobility 	maxSpeed 	13.889325349405
scalar FranciscoScenario.node[4].veinsmobility 	totalDistance 	263.97081132918
scalar FranciscoScenario.node[4].veinsmobility 	totalCO2Emission 	44.320283640871
scalar FranciscoScenario.node[5].appl 	newWarningReceivedSignal:count 	1
attr description  "New Warning Received"
scalar FranciscoScenario.node[5].appl 	messageReceivedSignal:count 	25
attr description  "Message Received"
scalar FranciscoScenario.node[5].appl 	beaconReceivedSignal:count 	0
attr description  "Beacon Received"
scalar FranciscoScenario.node[5].appl 	warningReceivedSignal:count 	25
attr description  "Warning Received"
scalar FranciscoScenario.node[5].nic.phy80211p 	busyTime 	0.014785610513709
scalar FranciscoScenario.node[5].nic.mac1609_4 	ReceivedUnicastPackets 	0
scalar FranciscoScenario.node[5].nic.mac1609_4 	ReceivedBroadcasts 	25
scalar FranciscoScenario.node[5].nic.mac1609_4 	SentPackets 	24
scalar FranciscoScenario.node[5].nic.mac1609_4 	SNIRLostPackets 	2333
scalar FranciscoScenario.node[5].nic.mac1609_4 	RXTXLostPackets 	53
scalar FranciscoScenario.node[5].nic.mac1609_4 	TotalLostPackets 	2386
scalar FranciscoScenario.node[5].nic.mac1609_4 	DroppedPacketsInMac 	0
scalar FranciscoScenario.node[5].nic.mac1609_4 	TooLittleTime 	0
scalar FranciscoScenario.node[5].nic.mac1609_4 	TimesIntoBackoff 	29
scalar FranciscoScenario.node[5].nic.mac1609_4 	SlotsBackoff 	90
scalar FranciscoScenario.node[5].nic.mac1609_4 	NumInternalContention 	0
scalar FranciscoScenario.node[5].nic.mac1609_4 	totalBusyTime 	0.121312373643
scalar FranciscoScenario.node[5].veinsmobility 	startTime 	1.2
scalar FranciscoScenario.node[5].veinsmobility 	totalTime 	19.1
scalar FranciscoScenario.node[5].veinsmobility 	stopTime 	20.353757457457
scalar FranciscoScenario.node[5].veinsmobility 	minSpeed 	3.3150704857752
scalar FranciscoScenario.node[5].veinsmobility 	maxSpeed 	13.888221266132
scalar FranciscoScenario.node[5].veinsmobility 	totalDistance 	202.92921811034
scalar FranciscoScenario.node[5].veinsmobility 	totalCO2Emission 	57.553037743783
scalar FranciscoScenario.node[6].appl 	newWarningReceivedSignal:count 	1
attr description  "New Warning Received"
scalar FranciscoScenario.node[6].appl 	messageReceivedSignal:count 	124
attr description  "Message Received"
scalar FranciscoScenario.node[6].appl 	beaconReceivedSignal:count 	0
attr description  "Beacon Received"
scalar FranciscoScenario.node[6].appl 	warningReceivedSignal:count 	124
attr description  "Warning Received"
scalar FranciscoScenario.node[6].nic.phy80211p 	busyTime 	0.010224625575582
scalar FranciscoScenario.node[6].nic.mac1609_4 	ReceivedUnicastPackets 	0
scalar FranciscoScenario.node[6].nic.mac1609_4 	ReceivedBroadcasts 	124
scalar FranciscoScenario.node[6].nic.mac1609_4 	SentPackets 	118
scalar FranciscoScenario.node[6].nic.mac1609_4 	SNIRLostPackets 	1504
scalar FranciscoScenario.node[6].nic.mac1609_4 	RXTXLostPackets 	228
scalar FranciscoScenario.node[6].nic.mac1609_4 	TotalLostPackets 	1732
scalar FranciscoScenario.node[6].nic.mac1609_4 	DroppedPacketsInMac 	0
scalar FranciscoScenario.node[6].nic.mac1609_4 	TooLittleTime 	0
scalar FranciscoScenario.node[6].nic.mac1609_4 	TimesIntoBackoff 	122
scalar FranciscoScenario.node[6].nic.mac1609_4 	SlotsBackoff 	418
scalar FranciscoScenario.node[6].nic.mac1609_4 	NumInternalContention 	0
scalar FranciscoScenario.node[6].nic.mac1609_4 	totalBusyTime 	0.105891922317
scalar FranciscoScenario.node[6].veinsmobility 	startTime 	1.2
scalar FranciscoScenario.node[6].veinsmobility 	totalTime 	19.1
scalar FranciscoScenario.node[6].veinsmobility 	stopTime 	20.353757457457
scalar FranciscoScenario.node[6].veinsmobility 	minSpeed 	3.3032529969387
scalar FranciscoScenario.node[6].veinsmobility 	maxSpeed 	13.888984672111
scalar FranciscoScenario.node[6].veinsmobility 	totalDistance 	218.80313233475
scalar FranciscoScenario.node[6].veinsmobility 	totalCO2Emission 	51.260420327791
scalar FranciscoScenario.node[7].appl 	newWarningReceivedSignal:count 	1
attr description  "New Warning Received"
scalar FranciscoScenario.node[7].appl 	messageReceivedSignal:count 	47
attr description  "Message Received"
scalar FranciscoScenario.node[7].appl 	beaconReceivedSignal:count 	0
attr description  "Beacon Received"
scalar FranciscoScenario.node[7].appl 	warningReceivedSignal:count 	47
attr description  "Warning Received"
scalar FranciscoScenario.node[7].nic.phy80211p 	busyTime 	0.015023683903336
scalar FranciscoScenario.node[7].nic.mac1609_4 	ReceivedUnicastPackets 	0
scalar FranciscoScenario.node[7].nic.mac1609_4 	ReceivedBroadcasts 	47
scalar FranciscoScenario.node[7].nic.mac1609_4 	SentPackets 	40
scalar FranciscoScenario.node[7].nic.mac1609_4 	SNIRLostPackets 	2349
scalar FranciscoScenario.node[7].nic.mac1609_4 	RXTXLostPackets 	97
scalar FranciscoScenario.node[7].nic.mac1609_4 	TotalLostPackets 	2446
scalar FranciscoScenario.node[7].nic.mac1609_4 	DroppedPacketsInMac 	0
scalar FranciscoScenario.node[7].nic.mac1609_4 	TooLittleTime 	0
scalar FranciscoScenario.node[7].nic.mac1609_4 	TimesIntoBackoff 	43
scalar FranciscoScenario.node[7].nic.mac1609_4 	SlotsBackoff 	157
scalar FranciscoScenario.node[7].nic.mac1609_4 	NumInternalContention 	0
scalar FranciscoScenario.node[7].nic.mac1609_4 	totalBusyTime 	0.123402049273
scalar FranciscoScenario.node[7].veinsmobility 	startTime 	1.2
scalar FranciscoScenario.node[7].veinsmobility 	totalTime 	19.1
scalar FranciscoScenario.node[7].veinsmobility 	stopTime 	20.353757457457
scalar FranciscoScenario.node[7].veinsmobility 	minSpeed 	13.761942808677
scalar FranciscoScenario.node[7].veinsmobility 	maxSpeed 	15.649992804453
scalar FranciscoScenario.node[7].veinsmobility 	totalDistance 	285.19751236098
scalar FranciscoScenario.node[7].veinsmobility 	totalCO2Emission 	45.575897398109
scalar FranciscoScenario.node[8].appl 	newWarningReceivedSignal:count 	1
attr description  "New Warning Received"
scalar FranciscoScenario.node[8].appl 	messageReceivedSignal:count 	201
attr description  "Message Received"
scalar FranciscoScenario.node[8].appl 	beaconReceivedSignal:count 	0
attr description  "Beacon Received"
scalar FranciscoScenario.node[8].appl 	warningReceivedSignal:count 	201
attr description  "Warning Received"
scalar FranciscoScenario.node[8].nic.phy80211p 	busyTime 	0.0073489496324494
scalar FranciscoScenario.node[8].nic.mac1609_4 	ReceivedUnicastPackets 	0
scalar FranciscoScenario.node[8].nic.mac1609_4 	ReceivedBroadcasts 	201
scalar FranciscoScenario.node[8].nic.mac1609_4 	SentPackets 	190
scalar FranciscoScenario.node[8].nic.mac1609_4 	SNIRLostPackets 	972
scalar FranciscoScenario.node[8].nic.mac1609_4 	RXTXLostPackets 	234
scalar FranciscoScenario.node[8].nic.mac1609_4 	TotalLostPackets 	1206
scalar FranciscoScenario.node[8].nic.mac1609_4 	DroppedPacketsInMac 	0
scalar FranciscoScenario.node[8].nic.mac1609_4 	TooLittleTime 	0
scalar FranciscoScenario.node[8].nic.mac1609_4 	TimesIntoBackoff 	190
scalar FranciscoScenario.node[8].nic.mac1609_4 	SlotsBackoff 	641
scalar FranciscoScenario.node[8].nic.mac1609_4 	NumInternalContention 	0
scalar FranciscoScenario.node[8].nic.mac1609_4 	totalBusyTime 	0.097522918963
scalar FranciscoScenario.node[8].veinsmobility 	startTime 	1.2
scalar FranciscoScenario.node[8].veinsmobility 	totalTime 	19.1
scalar FranciscoScenario.node[8].veinsmobility 	stopTime 	20.353757457457
scalar FranciscoScenario.node[8].veinsmobility 	minSpeed 	27.650005640106
scalar FranciscoScenario.node[8].veinsmobility 	maxSpeed 	27.778899022706
scalar FranciscoScenario.node[8].veinsmobility 	totalDistance 	529.34557546641
scalar FranciscoScenario.node[8].veinsmobility 	totalCO2Emission 	90.544019766864
scalar FranciscoScenario.node[9].appl 	newWarningReceivedSignal:count 	1
attr description  "New Warning Received"
scalar FranciscoScenario.node[9].appl 	messageReceivedSignal:count 	209
attr description  "Message Received"
scalar FranciscoScenario.node[9].appl 	beaconReceivedSignal:count 	0
attr description  "Beacon Received"
scalar FranciscoScenario.node[9].appl 	warningReceivedSignal:count 	209
attr description  "Warning Received"
scalar FranciscoScenario.node[9].nic.phy80211p 	busyTime 	0.0056197850130495
scalar FranciscoScenario.node[9].nic.mac1609_4 	ReceivedUnicastPackets 	0
scalar FranciscoScenario.node[9].nic.mac1609_4 	ReceivedBroadcasts 	209
scalar FranciscoScenario.node[9].nic.mac1609_4 	SentPackets 	201
scalar FranciscoScenario.node[9].nic.mac1609_4 	SNIRLostPackets 	686
scalar FranciscoScenario.node[9].nic.mac1609_4 	RXTXLostPackets 	63
scalar FranciscoScenario.node[9].nic.mac1609_4 	TotalLostPackets 	749
scalar FranciscoScenario.node[9].nic.mac1609_4 	DroppedPacketsInMac 	0
scalar FranciscoScenario.node[9].nic.mac1609_4 	TooLittleTime 	0
scalar FranciscoScenario.node[9].nic.mac1609_4 	TimesIntoBackoff 	220
scalar FranciscoScenario.node[9].nic.mac1609_4 	SlotsBackoff 	772
scalar FranciscoScenario.node[9].nic.mac1609_4 	NumInternalContention 	0
scalar FranciscoScenario.node[9].nic.mac1609_4 	totalBusyTime 	0.096616063704
scalar FranciscoScenario.node[9].veinsmobility 	startTime 	1.2
scalar FranciscoScenario.node[9].veinsmobility 	totalTime 	19.1
scalar FranciscoScenario.node[9].veinsmobility 	stopTime 	20.353757457457
scalar FranciscoScenario.node[9].veinsmobility 	minSpeed 	13.760202274094
scalar FranciscoScenario.node[9].veinsmobility 	maxSpeed 	13.889512215643
scalar FranciscoScenario.node[9].veinsmobility 	totalDistance 	264.08718999417
scalar FranciscoScenario.node[9].veinsmobility 	totalCO2Emission 	44.08551109171
scalar FranciscoScenario.node[10].appl 	newWarningReceivedSignal:count 	1
attr description  "New Warning Received"
scalar FranciscoScenario.node[10].appl 	messageReceivedSignal:count 	94
attr description  "Message Received"
scalar FranciscoScenario.node[10].appl 	beaconReceivedSignal:count 	0
attr description  "Beacon Received"
scalar FranciscoScenario.node[10].appl 	warningReceivedSignal:count 	94
attr description  "Warning Received"
scalar FranciscoScenario.node[10].nic.phy80211p 	busyTime 	0.01012438414837
scalar FranciscoScenario.node[10].nic.mac1609_4 	ReceivedUnicastPackets 	0
scalar FranciscoScenario.node[10].nic.mac1609_4 	ReceivedBroadcasts 	94
scalar FranciscoScenario.node[10].nic.mac1609_4 	SentPackets 	90
scalar FranciscoScenario.node[10].nic.mac1609_4 	SNIRLostPackets 	1519
scalar FranciscoScenario.node[10].nic.mac1609_4 	RXTXLostPackets 	119
scalar FranciscoScenario.node[10].nic.mac1609_4 	TotalLostPackets 	1638
scalar FranciscoScenario.node[10].nic.mac1609_4 	DroppedPacketsInMac 	0
scalar FranciscoScenario.node[10].nic.mac1609_4 	TooLittleTime 	0
scalar FranciscoScenario.node[10].nic.mac1609_4 	TimesIntoBackoff 	101
scalar FranciscoScenario.node[10].nic.mac1609_4 	SlotsBackoff 	324
scalar FranciscoScenario.node[10].nic.mac1609_4 	NumInternalContention 	0
scalar FranciscoScenario.node[10].nic.mac1609_4 	totalBusyTime 	0.110009600744
scalar FranciscoScenario.node[10].veinsmobility 	startTime 	1.2
scalar FranciscoScenario.node[10].veinsmobility 	totalTime 	19.1
scalar FranciscoScenario.node[10].veinsmobility 	stopTime 	20.353757457457
scalar FranciscoScenario.node[10].veinsmobility 	minSpeed 	0
scalar FranciscoScenario.node[10].veinsmobility 	maxSpeed 	13.886106458216
scalar FranciscoScenario.node[10].veinsmobility 	totalDistance 	157.58902400459
scalar FranciscoScenario.node[10].veinsmobility 	totalCO2Emission 	31.839579731765
scalar FranciscoScenario.node[11].appl 	newWarningReceivedSignal:count 	1
attr description  "New Warning Received"
scalar FranciscoScenario.node[11].appl 	messageReceivedSignal:count 	137
attr description  "Message Received"
scalar FranciscoScenario.node[11].appl 	beaconReceivedSignal:count 	0
attr description  "Beacon Received"
scalar FranciscoScenario.node[11].appl 	warningReceivedSignal:count 	137
attr description  "Warning Received"
scalar FranciscoScenario.node[11].nic.phy80211p 	busyTime 	0.0095417308527028
scalar FranciscoScenario.node[11].nic.mac1609_4 	ReceivedUnicastPackets 	0
scalar FranciscoScenario.node[11].nic.mac1609_4 	ReceivedBroadcasts 	137
scalar FranciscoScenario.node[11].nic.mac1609_4 	SentPackets 	130
scalar FranciscoScenario.node[11].nic.mac1609_4 	SNIRLostPackets 	1384
scalar FranciscoScenario.node[11].nic.mac1609_4 	RXTXLostPackets 	204
scalar FranciscoScenario.node[11].nic.mac1609_4 	TotalLostPackets 	1588
scalar FranciscoScenario.node[11].nic.mac1609_4 	DroppedPacketsInMac 	0
scalar FranciscoScenario.node[11].nic.mac1609_4 	TooLittleTime 	0
scalar FranciscoScenario.node[11].nic.mac1609_4 	TimesIntoBackoff 	136
scalar FranciscoScenario.node[11].nic.mac1609_4 	SlotsBackoff 	471
scalar FranciscoScenario.node[11].nic.mac1609_4 	NumInternalContention 	0
scalar FranciscoScenario.node[11].nic.mac1609_4 	totalBusyTime 	0.103213687894
scalar FranciscoScenario.node[11].veinsmobility 	startTime 	1.2
scalar FranciscoScenario.node[11].veinsmobility 	totalTime 	19.1
scalar FranciscoScenario.node[11].veinsmobility 	stopTime 	20.353757457457
scalar FranciscoScenario.node[11].veinsmobility 	minSpeed 	9.5169187076373
scalar FranciscoScenario.node[11].veinsmobility 	maxSpeed 	13.889763465817
scalar FranciscoScenario.node[11].veinsmobility 	totalDistance 	260.99738923982
scalar FranciscoScenario.node[11].veinsmobility 	totalCO2Emission 	42.852667109077
scalar FranciscoScenario.node[12].appl 	newWarningReceivedSignal:count 	1
attr description  "New Warning Received"
scalar FranciscoScenario.node[12].appl 	messageReceivedSignal:count 	137
attr description  "Message Received"
scalar FranciscoScenario.node[12].appl 	beaconReceivedSignal:count 	0
attr description  "Beacon Received"
scalar FranciscoScenario.node[12].appl 	warningReceivedSignal:count 	137
attr description  "Warning Received"
scalar FranciscoScenario.node[12].nic.phy80211p 	busyTime 	0.0082949781017587
scalar FranciscoScenario.node[12].nic.mac1609_4 	ReceivedUnicastPackets 	0
scalar FranciscoScenario.node[12].nic.mac1609_4 	ReceivedBroadcasts 	137
scalar FranciscoScenario.node[12].nic.mac1609_4 	SentPackets 	121
scalar FranciscoScenario.node[12].nic.mac1609_4 	SNIRLostPackets 	1187
scalar FranciscoScenario.node[12].nic.mac1609_4 	RXTXLostPackets 	115
scalar FranciscoScenario.node[12].nic.mac1609_4 	TotalLostPackets 	1302
scalar FranciscoScenario.node[12].nic.mac1609_4 	DroppedPacketsInMac 	0
scalar FranciscoScenario.node[12].nic.mac1609_4 	TooLittleTime 	0
scalar FranciscoScenario.node[12].nic.mac1609_4 	TimesIntoBackoff 	131
scalar FranciscoScenario.node[12].nic.mac1609_4 	SlotsBackoff 	468
scalar FranciscoScenario.node[12].nic.mac1609_4 	NumInternalContention 	0
scalar FranciscoScenario.node[12].nic.mac1609_4 	totalBusyTime 	0.106956140024
scalar FranciscoScenario.node[12].veinsmobility 	startTime 	1.2
scalar FranciscoScenario.node[12].veinsmobility 	totalTime 	19.1
scalar FranciscoScenario.node[12].veinsmobility 	stopTime 	20.353757457457
scalar FranciscoScenario.node[12].veinsmobility 	minSpeed 	3.2248186964898
scalar FranciscoScenario.node[12].veinsmobility 	maxSpeed 	13.889894360469
scalar FranciscoScenario.node[12].veinsmobility 	totalDistance 	211.04033565549
scalar FranciscoScenario.node[12].veinsmobility 	totalCO2Emission 	57.77623347024
scalar FranciscoScenario.node[53].appl 	newWarningReceivedSignal:count 	1
attr description  "New Warning Received"
scalar FranciscoScenario.node[53].appl 	messageReceivedSignal:count 	149
attr description  "Message Received"
scalar FranciscoScenario.node[53].appl 	beaconReceivedSignal:count 	0
attr description  "Beacon Received"
scalar FranciscoScenario.node[53].appl 	warningReceivedSignal:count 	149
attr description  "Warning Received"
scalar FranciscoScenario.node[53].nic.phy80211p 	busyTime 	0.010846347577957
scalar FranciscoScenario.node[53].nic.mac1609_4 	ReceivedUnicastPackets 	0
scalar FranciscoScenario.node[53].nic.mac1609_4 	ReceivedBroadcasts 	149
scalar FranciscoScenario.node[53].nic.mac1609_4 	SentPackets 	123
scalar FranciscoScenario.node[53].nic.mac1609_4 	SNIRLostPackets 	1291
scalar FranciscoScenario.node[53].nic.mac1609_4 	RXTXLostPackets 	216
scalar FranciscoScenario.node[53].nic.mac1609_4 	TotalLostPackets 	1507
scalar FranciscoScenario.node[53].nic.mac1609_4 	DroppedPacketsInMac 	0
scalar FranciscoScenario.node[53].nic.mac1609_4 	TooLittleTime 	0
scalar FranciscoScenario.node[53].nic.mac1609_4 	TimesIntoBackoff 	123
scalar FranciscoScenario.node[53].nic.mac1609_4 	SlotsBackoff 	429
scalar FranciscoScenario.node[53].nic.mac1609_4 	NumInternalContention 	0
scalar FranciscoScenario.node[53].nic.mac1609_4 	totalBusyTime 	0.105681808967
scalar FranciscoScenario.node[53].veinsmobility 	startTime 	4.4
scalar FranciscoScenario.node[53].veinsmobility 	totalTime 	15.9
scalar FranciscoScenario.node[53].veinsmobility 	stopTime 	20.353757457457
scalar FranciscoScenario.node[53].veinsmobility 	minSpeed 	3.1823003330253
scalar FranciscoScenario.node[53].veinsmobility 	maxSpeed 	13.806838336866
scalar FranciscoScenario.node[53].veinsmobility 	totalDistance 	127.4369094058
scalar FranciscoScenario.node[53].veinsmobility 	totalCO2Emission 	42.345857923919
scalar FranciscoScenario.node[13].appl 	newWarningReceivedSignal:count 	1
attr description  "New Warning Received"
scalar FranciscoScenario.node[13].appl 	messageReceivedSignal:count 	175
attr description  "Message Received"
scalar FranciscoScenario.node[13].appl 	beaconReceivedSignal:count 	0
attr description  "Beacon Received"
scalar FranciscoScenario.node[13].appl 	warningReceivedSignal:count 	175
attr description  "Warning Received"
scalar FranciscoScenario.node[13].nic.phy80211p 	busyTime 	0.0089966680922398
scalar FranciscoScenario.node[13].nic.mac1609_4 	ReceivedUnicastPackets 	0
scalar FranciscoScenario.node[13].nic.mac1609_4 	ReceivedBroadcasts 	175
scalar FranciscoScenario.node[13].nic.mac1609_4 	SentPackets 	142
scalar FranciscoScenario.node[13].nic.mac1609_4 	SNIRLostPackets 	1258
scalar FranciscoScenario.node[13].nic.mac1609_4 	RXTXLostPackets 	206
scalar FranciscoScenario.node[13].nic.mac1609_4 	TotalLostPackets 	1464
scalar FranciscoScenario.node[13].nic.mac1609_4 	DroppedPacketsInMac 	0
scalar FranciscoScenario.node[13].nic.mac1609_4 	TooLittleTime 	0
scalar FranciscoScenario.node[13].nic.mac1609_4 	TimesIntoBackoff 	145
scalar FranciscoScenario.node[13].nic.mac1609_4 	SlotsBackoff 	522
scalar FranciscoScenario.node[13].nic.mac1609_4 	NumInternalContention 	0
scalar FranciscoScenario.node[13].nic.mac1609_4 	totalBusyTime 	0.102088268249
scalar FranciscoScenario.node[13].veinsmobility 	startTime 	1.2
scalar FranciscoScenario.node[13].veinsmobility 	totalTime 	19.1
scalar FranciscoScenario.node[13].veinsmobility 	stopTime 	20.353757457457
scalar FranciscoScenario.node[13].veinsmobility 	minSpeed 	3.5162832031272
scalar FranciscoScenario.node[13].veinsmobility 	maxSpeed 	13.889517729501
scalar FranciscoScenario.node[13].veinsmobility 	totalDistance 	221.14362798893
scalar FranciscoScenario.node[13].veinsmobility 	totalCO2Emission 	49.166516975713
scalar FranciscoScenario.node[45].appl 	newWarningReceivedSignal:count 	1
attr description  "New Warning Received"
scalar FranciscoScenario.node[45].appl 	messageReceivedSignal:count 	165
attr description  "Message Received"
scalar FranciscoScenario.node[45].appl 	beaconReceivedSignal:count 	0
attr description  "Beacon Received"
scalar FranciscoScenario.node[45].appl 	warningReceivedSignal:count 	165
attr description  "Warning Received"
scalar FranciscoScenario.node[45].nic.phy80211p 	busyTime 	0.009919243727219
scalar FranciscoScenario.node[45].nic.mac1609_4 	ReceivedUnicastPackets 	0
scalar FranciscoScenario.node[45].nic.mac1609_4 	ReceivedBroadcasts 	165
scalar FranciscoScenario.node[45].nic.mac1609_4 	SentPackets 	139
scalar FranciscoScenario.node[45].nic.mac1609_4 	SNIRLostPackets 	1283
scalar FranciscoScenario.node[45].nic.mac1609_4 	RXTXLostPackets 	194
scalar FranciscoScenario.node[45].nic.mac1609_4 	TotalLostPackets 	1477
scalar FranciscoScenario.node[45].nic.mac1609_4 	DroppedPacketsInMac 	0
scalar FranciscoScenario.node[45].nic.mac1609_4 	TooLittleTime 	0
scalar FranciscoScenario.node[45].nic.mac1609_4 	TimesIntoBackoff 	142
scalar FranciscoScenario.node[45].nic.mac1609_4 	SlotsBackoff 	508
scalar FranciscoScenario.node[45].nic.mac1609_4 	NumInternalContention 	0
scalar FranciscoScenario.node[45].nic.mac1609_4 	totalBusyTime 	0.10178392066
scalar FranciscoScenario.node[45].veinsmobility 	startTime 	2.8
scalar FranciscoScenario.node[45].veinsmobility 	totalTime 	17.5
scalar FranciscoScenario.node[45].veinsmobility 	stopTime 	20.353757457457
scalar FranciscoScenario.node[45].veinsmobility 	minSpeed 	3.4105710381261
scalar FranciscoScenario.node[45].veinsmobility 	maxSpeed 	13.889990419396
scalar FranciscoScenario.node[45].veinsmobility 	totalDistance 	194.26141007483
scalar FranciscoScenario.node[45].veinsmobility 	totalCO2Emission 	35.935954929583
scalar FranciscoScenario.node[14].appl 	newWarningReceivedSignal:count 	1
attr description  "New Warning Received"
scalar FranciscoScenario.node[14].appl 	messageReceivedSignal:count 	43
attr description  "Message Received"
scalar FranciscoScenario.node[14].appl 	beaconReceivedSignal:count 	0
attr description  "Beacon Received"
scalar FranciscoScenario.node[14].appl 	warningReceivedSignal:count 	43
attr description  "Warning Received"
scalar FranciscoScenario.node[14].nic.phy80211p 	busyTime 	0.015543686306996
scalar FranciscoScenario.node[14].nic.mac1609_4 	ReceivedUnicastPackets 	0
scalar FranciscoScenario.node[14].nic.mac1609_4 	ReceivedBroadcasts 	43
scalar FranciscoScenario.node[14].nic.mac1609_4 	SentPackets 	36
scalar FranciscoScenario.node[14].nic.mac1609_4 	SNIRLostPackets 	2436
scalar FranciscoScenario.node[14].nic.mac1609_4 	RXTXLostPackets 	85
scalar FranciscoScenario.node[14].nic.mac1609_4 	TotalLostPackets 	2521
scalar FranciscoScenario.node[14].nic.mac1609_4 	DroppedPacketsInMac 	0
scalar FranciscoScenario.node[14].nic.mac1609_4 	TooLittleTime 	0
scalar FranciscoScenario.node[14].nic.mac1609_4 	TimesIntoBackoff 	36
scalar FranciscoScenario.node[14].nic.mac1609_4 	SlotsBackoff 	134
scalar FranciscoScenario.node[14].nic.mac1609_4 	NumInternalContention 	0
scalar FranciscoScenario.node[14].nic.mac1609_4 	totalBusyTime 	0.125114374488
scalar FranciscoScenario.node[14].veinsmobility 	startTime 	1.2
scalar FranciscoScenario.node[14].veinsmobility 	totalTime 	19.1
scalar FranciscoScenario.node[14].veinsmobility 	stopTime 	20.353757457457
scalar FranciscoScenario.node[14].veinsmobility 	minSpeed 	7.181675537258
scalar FranciscoScenario.node[14].veinsmobility 	maxSpeed 	13.889768337631
scalar FranciscoScenario.node[14].veinsmobility 	totalDistance 	256.61160056553
scalar FranciscoScenario.node[14].veinsmobility 	totalCO2Emission 	41.798335588861
scalar FranciscoScenario.node[46].appl 	newWarningReceivedSignal:count 	1
attr description  "New Warning Received"
scalar FranciscoScenario.node[46].appl 	messageReceivedSignal:count 	52
attr description  "Message Received"
scalar FranciscoScenario.node[46].appl 	beaconReceivedSignal:count 	0
attr description  "Beacon Received"
scalar FranciscoScenario.node[46].appl 	warningReceivedSignal:count 	52
attr description  "Warning Received"
scalar FranciscoScenario.node[46].nic.phy80211p 	busyTime 	0.016680189313862
scalar FranciscoScenario.node[46].nic.mac1609_4 	ReceivedUnicastPackets 	0
scalar FranciscoScenario.node[46].nic.mac1609_4 	ReceivedBroadcasts 	52
scalar FranciscoScenario.node[46].nic.mac1609_4 	SentPackets 	37
scalar FranciscoScenario.node[46].nic.mac1609_4 	SNIRLostPackets 	2386
scalar FranciscoScenario.node[46].nic.mac1609_4 	RXTXLostPackets 	94
scalar FranciscoScenario.node[46].nic.mac1609_4 	TotalLostPackets 	2480
scalar FranciscoScenario.node[46].nic.mac1609_4 	DroppedPacketsInMac 	0
scalar FranciscoScenario.node[46].nic.mac1609_4 	TooLittleTime 	0
scalar FranciscoScenario.node[46].nic.mac1609_4 	TimesIntoBackoff 	37
scalar FranciscoScenario.node[46].nic.mac1609_4 	SlotsBackoff 	145
scalar FranciscoScenario.node[46].nic.mac1609_4 	NumInternalContention 	0
scalar FranciscoScenario.node[46].nic.mac1609_4 	totalBusyTime 	0.124475315968
scalar FranciscoScenario.node[46].veinsmobility 	startTime 	2.8
scalar FranciscoScenario.node[46].veinsmobility 	totalTime 	17.5
scalar FranciscoScenario.node[46].veinsmobility 	stopTime 	20.353757457457
scalar FranciscoScenario.node[46].veinsmobility 	minSpeed 	9.041856160708
scalar FranciscoScenario.node[46].veinsmobility 	maxSpeed 	13.889052663688
scalar FranciscoScenario.node[46].veinsmobility 	totalDistance 	237.00487046208
scalar FranciscoScenario.node[46].veinsmobility 	totalCO2Emission 	37.435219956091
scalar FranciscoScenario.node[15].appl 	newWarningReceivedSignal:count 	1
attr description  "New Warning Received"
scalar FranciscoScenario.node[15].appl 	messageReceivedSignal:count 	165
attr description  "Message Received"
scalar FranciscoScenario.node[15].appl 	beaconReceivedSignal:count 	0
attr description  "Beacon Received"
scalar FranciscoScenario.node[15].appl 	warningReceivedSignal:count 	165
attr description  "Warning Received"
scalar FranciscoScenario.node[15].nic.phy80211p 	busyTime 	0.0080944952473355
scalar FranciscoScenario.node[15].nic.mac1609_4 	ReceivedUnicastPackets 	0
scalar FranciscoScenario.node[15].nic.mac1609_4 	ReceivedBroadcasts 	165
scalar FranciscoScenario.node[15].nic.mac1609_4 	SentPackets 	155
scalar FranciscoScenario.node[15].nic.mac1609_4 	SNIRLostPackets 	1125
scalar FranciscoScenario.node[15].nic.mac1609_4 	RXTXLostPackets 	147
scalar FranciscoScenario.node[15].nic.mac1609_4 	TotalLostPackets 	1272
scalar FranciscoScenario.node[15].nic.mac1609_4 	DroppedPacketsInMac 	0
scalar FranciscoScenario.node[15].nic.mac1609_4 	TooLittleTime 	0
scalar FranciscoScenario.node[15].nic.mac1609_4 	TimesIntoBackoff 	160
scalar FranciscoScenario.node[15].nic.mac1609_4 	SlotsBackoff 	606
scalar FranciscoScenario.node[15].nic.mac1609_4 	NumInternalContention 	0
scalar FranciscoScenario.node[15].nic.mac1609_4 	totalBusyTime 	0.100291393307
scalar FranciscoScenario.node[15].veinsmobility 	startTime 	1.2
scalar FranciscoScenario.node[15].veinsmobility 	totalTime 	19.1
scalar FranciscoScenario.node[15].veinsmobility 	stopTime 	20.353757457457
scalar FranciscoScenario.node[15].veinsmobility 	minSpeed 	3.5758314387567
scalar FranciscoScenario.node[15].veinsmobility 	maxSpeed 	13.888477169403
scalar FranciscoScenario.node[15].veinsmobility 	totalDistance 	221.02530437078
scalar FranciscoScenario.node[15].veinsmobility 	totalCO2Emission 	52.557636552993
scalar FranciscoScenario.node[16].appl 	newWarningReceivedSignal:count 	1
attr description  "New Warning Received"
scalar FranciscoScenario.node[16].appl 	messageReceivedSignal:count 	109
attr description  "Message Received"
scalar FranciscoScenario.node[16].appl 	beaconReceivedSignal:count 	0
attr description  "Beacon Received"
scalar FranciscoScenario.node[16].appl 	warningReceivedSignal:count 	109
attr description  "Warning Received"
scalar FranciscoScenario.node[16].nic.phy80211p 	busyTime 	0.010970171190468
scalar FranciscoScenario.node[16].nic.mac1609_4 	ReceivedUnicastPackets 	0
scalar FranciscoScenario.node[16].nic.mac1609_4 	ReceivedBroadcasts 	109
scalar FranciscoScenario.node[16].nic.mac1609_4 	SentPackets 	104
scalar FranciscoScenario.node[16].nic.mac1609_4 	SNIRLostPackets 	1640
scalar FranciscoScenario.node[16].nic.mac1609_4 	RXTXLostPackets 	159
scalar FranciscoScenario.node[16].nic.mac1609_4 	TotalLostPackets 	1799
scalar FranciscoScenario.node[16].nic.mac1609_4 	DroppedPacketsInMac 	0
scalar FranciscoScenario.node[16].nic.mac1609_4 	TooLittleTime 	0
scalar FranciscoScenario.node[16].nic.mac1609_4 	TimesIntoBackoff 	111
scalar FranciscoScenario.node[16].nic.mac1609_4 	SlotsBackoff 	359
scalar FranciscoScenario.node[16].nic.mac1609_4 	NumInternalContention 	0
scalar FranciscoScenario.node[16].nic.mac1609_4 	totalBusyTime 	0.10766075771
scalar FranciscoScenario.node[16].veinsmobility 	startTime 	1.2
scalar FranciscoScenario.node[16].veinsmobility 	totalTime 	19.1
scalar FranciscoScenario.node[16].veinsmobility 	stopTime 	20.353757457457
scalar FranciscoScenario.node[16].veinsmobility 	minSpeed 	3.0096798478881
scalar FranciscoScenario.node[16].veinsmobility 	maxSpeed 	13.889193555582
scalar FranciscoScenario.node[16].veinsmobility 	totalDistance 	213.57780344499
scalar FranciscoScenario.node[16].veinsmobility 	totalCO2Emission 	47.763612949309
scalar FranciscoScenario.node[17].appl 	newWarningReceivedSignal:count 	1
attr description  "New Warning Received"
scalar FranciscoScenario.node[17].appl 	messageReceivedSignal:count 	108
attr description  "Message Received"
scalar FranciscoScenario.node[17].appl 	beaconReceivedSignal:count 	0
attr description  "Beacon Received"
scalar FranciscoScenario.node[17].appl 	warningReceivedSignal:count 	108
attr description  "Warning Received"
scalar FranciscoScenario.node[17].nic.phy80211p 	busyTime 	0.011615475378143
scalar FranciscoScenario.node[17].nic.mac1609_4 	ReceivedUnicastPackets 	0
scalar FranciscoScenario.node[17].nic.mac1609_4 	ReceivedBroadcasts 	108
scalar FranciscoScenario.node[17].nic.mac1609_4 	SentPackets 	1
scalar FranciscoScenario.node[17].nic.mac1609_4 	SNIRLostPackets 	1745
scalar FranciscoScenario.node[17].nic.mac1609_4 	RXTXLostPackets 	0
scalar FranciscoScenario.node[17].nic.mac1609_4 	TotalLostPackets 	1745
scalar FranciscoScenario.node[17].nic.mac1609_4 	DroppedPacketsInMac 	0
scalar FranciscoScenario.node[17].nic.mac1609_4 	TooLittleTime 	0
scalar FranciscoScenario.node[17].nic.mac1609_4 	TimesIntoBackoff 	1
scalar FranciscoScenario.node[17].nic.mac1609_4 	SlotsBackoff 	7
scalar FranciscoScenario.node[17].nic.mac1609_4 	NumInternalContention 	0
scalar FranciscoScenario.node[17].nic.mac1609_4 	totalBusyTime 	0.115355521953
scalar FranciscoScenario.node[17].veinsmobility 	startTime 	1.2
scalar FranciscoScenario.node[17].veinsmobility 	totalTime 	19.1
scalar FranciscoScenario.node[17].veinsmobility 	stopTime 	20.353757457457
scalar FranciscoScenario.node[17].veinsmobility 	minSpeed 	3.9280354854861e-05
scalar FranciscoScenario.node[17].veinsmobility 	maxSpeed 	10.347364019642
scalar FranciscoScenario.node[17].veinsmobility 	totalDistance 	48.04704500533
scalar FranciscoScenario.node[17].veinsmobility 	totalCO2Emission 	34.797101909721
scalar FranciscoScenario.node[18].appl 	newWarningReceivedSignal:count 	1
attr description  "New Warning Received"
scalar FranciscoScenario.node[18].appl 	messageReceivedSignal:count 	84
attr description  "Message Received"
scalar FranciscoScenario.node[18].appl 	beaconReceivedSignal:count 	0
attr description  "Beacon Received"
scalar FranciscoScenario.node[18].appl 	warningReceivedSignal:count 	84
attr description  "Warning Received"
scalar FranciscoScenario.node[18].nic.phy80211p 	busyTime 	0.01202270617619
scalar FranciscoScenario.node[18].nic.mac1609_4 	ReceivedUnicastPackets 	0
scalar FranciscoScenario.node[18].nic.mac1609_4 	ReceivedBroadcasts 	84
scalar FranciscoScenario.node[18].nic.mac1609_4 	SentPackets 	83
scalar FranciscoScenario.node[18].nic.mac1609_4 	SNIRLostPackets 	1832
scalar FranciscoScenario.node[18].nic.mac1609_4 	RXTXLostPackets 	116
scalar FranciscoScenario.node[18].nic.mac1609_4 	TotalLostPackets 	1948
scalar FranciscoScenario.node[18].nic.mac1609_4 	DroppedPacketsInMac 	0
scalar FranciscoScenario.node[18].nic.mac1609_4 	TooLittleTime 	0
scalar FranciscoScenario.node[18].nic.mac1609_4 	TimesIntoBackoff 	98
scalar FranciscoScenario.node[18].nic.mac1609_4 	SlotsBackoff 	341
scalar FranciscoScenario.node[18].nic.mac1609_4 	NumInternalContention 	0
scalar FranciscoScenario.node[18].nic.mac1609_4 	totalBusyTime 	0.111704569236
scalar FranciscoScenario.node[18].veinsmobility 	startTime 	1.2
scalar FranciscoScenario.node[18].veinsmobility 	totalTime 	19.1
scalar FranciscoScenario.node[18].veinsmobility 	stopTime 	20.353757457457
scalar FranciscoScenario.node[18].veinsmobility 	minSpeed 	15.521915555415
scalar FranciscoScenario.node[18].veinsmobility 	maxSpeed 	15.649813819695
scalar FranciscoScenario.node[18].veinsmobility 	totalDistance 	297.69998097328
scalar FranciscoScenario.node[18].veinsmobility 	totalCO2Emission 	49.04727743556
scalar FranciscoScenario.node[19].appl 	newWarningReceivedSignal:count 	1
attr description  "New Warning Received"
scalar FranciscoScenario.node[19].appl 	messageReceivedSignal:count 	57
attr description  "Message Received"
scalar FranciscoScenario.node[19].appl 	beaconReceivedSignal:count 	0
attr description  "Beacon Received"
scalar FranciscoScenario.node[19].appl 	warningReceivedSignal:count 	57
attr description  "Warning Received"
scalar FranciscoScenario.node[19].nic.phy80211p 	busyTime 	0.012386081349832
scalar FranciscoScenario.node[19].nic.mac1609_4 	ReceivedUnicastPackets 	0
scalar FranciscoScenario.node[19].nic.mac1609_4 	ReceivedBroadcasts 	57
scalar FranciscoScenario.node[19].nic.mac1609_4 	SentPackets 	53
[...]
scalar FranciscoScenario.node[33].nic.mac1609_4 	SlotsBackoff 	679
scalar FranciscoScenario.node[33].nic.mac1609_4 	NumInternalContention 	0
scalar FranciscoScenario.node[33].nic.mac1609_4 	totalBusyTime 	0.095337018284
scalar FranciscoScenario.node[33].veinsmobility 	startTime 	1.2
scalar FranciscoScenario.node[33].veinsmobility 	totalTime 	19.1
scalar FranciscoScenario.node[33].veinsmobility 	stopTime 	20.353757457457
scalar FranciscoScenario.node[33].veinsmobility 	minSpeed 	13.761255149206
scalar FranciscoScenario.node[33].veinsmobility 	maxSpeed 	13.889658768498
scalar FranciscoScenario.node[33].veinsmobility 	totalDistance 	264.06297219677
scalar FranciscoScenario.node[33].veinsmobility 	totalCO2Emission 	45.423326428258
scalar FranciscoScenario.node[34].appl 	newWarningReceivedSignal:count 	1
attr description  "New Warning Received"
scalar FranciscoScenario.node[34].appl 	messageReceivedSignal:count 	105
attr description  "Message Received"
scalar FranciscoScenario.node[34].appl 	beaconReceivedSignal:count 	0
attr description  "Beacon Received"
scalar FranciscoScenario.node[34].appl 	warningReceivedSignal:count 	105
attr description  "Warning Received"
scalar FranciscoScenario.node[34].nic.phy80211p 	busyTime 	0.01254270857985
scalar FranciscoScenario.node[34].nic.mac1609_4 	ReceivedUnicastPackets 	0
scalar FranciscoScenario.node[34].nic.mac1609_4 	ReceivedBroadcasts 	105
scalar FranciscoScenario.node[34].nic.mac1609_4 	SentPackets 	79
scalar FranciscoScenario.node[34].nic.mac1609_4 	SNIRLostPackets 	1895
scalar FranciscoScenario.node[34].nic.mac1609_4 	RXTXLostPackets 	136
scalar FranciscoScenario.node[34].nic.mac1609_4 	TotalLostPackets 	2031
scalar FranciscoScenario.node[34].nic.mac1609_4 	DroppedPacketsInMac 	0
scalar FranciscoScenario.node[34].nic.mac1609_4 	TooLittleTime 	0
scalar FranciscoScenario.node[34].nic.mac1609_4 	TimesIntoBackoff 	82
scalar FranciscoScenario.node[34].nic.mac1609_4 	SlotsBackoff 	274
scalar FranciscoScenario.node[34].nic.mac1609_4 	NumInternalContention 	0
scalar FranciscoScenario.node[34].nic.mac1609_4 	totalBusyTime 	0.115941442815
scalar FranciscoScenario.node[34].veinsmobility 	startTime 	1.2
scalar FranciscoScenario.node[34].veinsmobility 	totalTime 	19.1
scalar FranciscoScenario.node[34].veinsmobility 	stopTime 	20.353757457457
scalar FranciscoScenario.node[34].veinsmobility 	minSpeed 	3.3915317395455
scalar FranciscoScenario.node[34].veinsmobility 	maxSpeed 	15.648526219064
scalar FranciscoScenario.node[34].veinsmobility 	totalDistance 	240.29604287308
scalar FranciscoScenario.node[34].veinsmobility 	totalCO2Emission 	66.745421077168
scalar FranciscoScenario.node[35].appl 	newWarningReceivedSignal:count 	1
attr description  "New Warning Received"
scalar FranciscoScenario.node[35].appl 	messageReceivedSignal:count 	51
attr description  "Message Received"
scalar FranciscoScenario.node[35].appl 	beaconReceivedSignal:count 	0
attr description  "Beacon Received"
scalar FranciscoScenario.node[35].appl 	warningReceivedSignal:count 	51
attr description  "Warning Received"
scalar FranciscoScenario.node[35].nic.phy80211p 	busyTime 	0.011972585462584
scalar FranciscoScenario.node[35].nic.mac1609_4 	ReceivedUnicastPackets 	0
scalar FranciscoScenario.node[35].nic.mac1609_4 	ReceivedBroadcasts 	51
scalar FranciscoScenario.node[35].nic.mac1609_4 	SentPackets 	50
scalar FranciscoScenario.node[35].nic.mac1609_4 	SNIRLostPackets 	1857
scalar FranciscoScenario.node[35].nic.mac1609_4 	RXTXLostPackets 	54
scalar FranciscoScenario.node[35].nic.mac1609_4 	TotalLostPackets 	1911
scalar FranciscoScenario.node[35].nic.mac1609_4 	DroppedPacketsInMac 	0
scalar FranciscoScenario.node[35].nic.mac1609_4 	TooLittleTime 	0
scalar FranciscoScenario.node[35].nic.mac1609_4 	TimesIntoBackoff 	63
scalar FranciscoScenario.node[35].nic.mac1609_4 	SlotsBackoff 	213
scalar FranciscoScenario.node[35].nic.mac1609_4 	NumInternalContention 	0
scalar FranciscoScenario.node[35].nic.mac1609_4 	totalBusyTime 	0.118539590669
scalar FranciscoScenario.node[35].veinsmobility 	startTime 	1.2
scalar FranciscoScenario.node[35].veinsmobility 	totalTime 	19.1
scalar FranciscoScenario.node[35].veinsmobility 	stopTime 	20.353757457457
scalar FranciscoScenario.node[35].veinsmobility 	minSpeed 	3.5216119171186
scalar FranciscoScenario.node[35].veinsmobility 	maxSpeed 	13.889648582141
scalar FranciscoScenario.node[35].veinsmobility 	totalDistance 	218.53861316711
scalar FranciscoScenario.node[35].veinsmobility 	totalCO2Emission 	57.421510300111
scalar FranciscoScenario.node[36].appl 	newWarningReceivedSignal:count 	1
attr description  "New Warning Received"
scalar FranciscoScenario.node[36].appl 	messageReceivedSignal:count 	87
attr description  "Message Received"
scalar FranciscoScenario.node[36].appl 	beaconReceivedSignal:count 	0
attr description  "Beacon Received"
scalar FranciscoScenario.node[36].appl 	warningReceivedSignal:count 	87
attr description  "Warning Received"
scalar FranciscoScenario.node[36].nic.phy80211p 	busyTime 	0.014127776147633
scalar FranciscoScenario.node[36].nic.mac1609_4 	ReceivedUnicastPackets 	0
scalar FranciscoScenario.node[36].nic.mac1609_4 	ReceivedBroadcasts 	87
scalar FranciscoScenario.node[36].nic.mac1609_4 	SentPackets 	75
scalar FranciscoScenario.node[36].nic.mac1609_4 	SNIRLostPackets 	2166
scalar FranciscoScenario.node[36].nic.mac1609_4 	RXTXLostPackets 	183
scalar FranciscoScenario.node[36].nic.mac1609_4 	TotalLostPackets 	2349
scalar FranciscoScenario.node[36].nic.mac1609_4 	DroppedPacketsInMac 	0
scalar FranciscoScenario.node[36].nic.mac1609_4 	TooLittleTime 	0
scalar FranciscoScenario.node[36].nic.mac1609_4 	TimesIntoBackoff 	78
scalar FranciscoScenario.node[36].nic.mac1609_4 	SlotsBackoff 	259
scalar FranciscoScenario.node[36].nic.mac1609_4 	NumInternalContention 	0
scalar FranciscoScenario.node[36].nic.mac1609_4 	totalBusyTime 	0.116195083272
scalar FranciscoScenario.node[36].veinsmobility 	startTime 	1.2
scalar FranciscoScenario.node[36].veinsmobility 	totalTime 	19.1
scalar FranciscoScenario.node[36].veinsmobility 	stopTime 	20.353757457457
scalar FranciscoScenario.node[36].veinsmobility 	minSpeed 	13.762074509396
scalar FranciscoScenario.node[36].veinsmobility 	maxSpeed 	13.889882573057
scalar FranciscoScenario.node[36].veinsmobility 	totalDistance 	263.98190826546
scalar FranciscoScenario.node[36].veinsmobility 	totalCO2Emission 	43.54816876457
scalar FranciscoScenario.node[47].appl 	newWarningReceivedSignal:count 	1
attr description  "New Warning Received"
scalar FranciscoScenario.node[47].appl 	messageReceivedSignal:count 	68
attr description  "Message Received"
scalar FranciscoScenario.node[47].appl 	beaconReceivedSignal:count 	0
attr description  "Beacon Received"
scalar FranciscoScenario.node[47].appl 	warningReceivedSignal:count 	68
attr description  "Warning Received"
scalar FranciscoScenario.node[47].nic.phy80211p 	busyTime 	0.01614013400411
scalar FranciscoScenario.node[47].nic.mac1609_4 	ReceivedUnicastPackets 	0
scalar FranciscoScenario.node[47].nic.mac1609_4 	ReceivedBroadcasts 	68
scalar FranciscoScenario.node[47].nic.mac1609_4 	SentPackets 	61
scalar FranciscoScenario.node[47].nic.mac1609_4 	SNIRLostPackets 	2293
scalar FranciscoScenario.node[47].nic.mac1609_4 	RXTXLostPackets 	173
scalar FranciscoScenario.node[47].nic.mac1609_4 	TotalLostPackets 	2466
scalar FranciscoScenario.node[47].nic.mac1609_4 	DroppedPacketsInMac 	0
scalar FranciscoScenario.node[47].nic.mac1609_4 	TooLittleTime 	0
scalar FranciscoScenario.node[47].nic.mac1609_4 	TimesIntoBackoff 	62
scalar FranciscoScenario.node[47].nic.mac1609_4 	SlotsBackoff 	238
scalar FranciscoScenario.node[47].nic.mac1609_4 	NumInternalContention 	0
scalar FranciscoScenario.node[47].nic.mac1609_4 	totalBusyTime 	0.117709414949
scalar FranciscoScenario.node[47].veinsmobility 	startTime 	2.8
scalar FranciscoScenario.node[47].veinsmobility 	totalTime 	17.5
scalar FranciscoScenario.node[47].veinsmobility 	stopTime 	20.353757457457
scalar FranciscoScenario.node[47].veinsmobility 	minSpeed 	13.760264907209
scalar FranciscoScenario.node[47].veinsmobility 	maxSpeed 	13.889828387918
scalar FranciscoScenario.node[47].veinsmobility 	totalDistance 	241.81715650136
scalar FranciscoScenario.node[47].veinsmobility 	totalCO2Emission 	40.555651172595
scalar FranciscoScenario.node[48].appl 	newWarningReceivedSignal:count 	1
attr description  "New Warning Received"
scalar FranciscoScenario.node[48].appl 	messageReceivedSignal:count 	31
attr description  "Message Received"
scalar FranciscoScenario.node[48].appl 	beaconReceivedSignal:count 	0
attr description  "Beacon Received"
scalar FranciscoScenario.node[48].appl 	warningReceivedSignal:count 	31
attr description  "Warning Received"
scalar FranciscoScenario.node[48].nic.phy80211p 	busyTime 	0.016174314719917
scalar FranciscoScenario.node[48].nic.mac1609_4 	ReceivedUnicastPackets 	0
scalar FranciscoScenario.node[48].nic.mac1609_4 	ReceivedBroadcasts 	31
scalar FranciscoScenario.node[48].nic.mac1609_4 	SentPackets 	29
scalar FranciscoScenario.node[48].nic.mac1609_4 	SNIRLostPackets 	2333
scalar FranciscoScenario.node[48].nic.mac1609_4 	RXTXLostPackets 	77
scalar FranciscoScenario.node[48].nic.mac1609_4 	TotalLostPackets 	2410
scalar FranciscoScenario.node[48].nic.mac1609_4 	DroppedPacketsInMac 	0
scalar FranciscoScenario.node[48].nic.mac1609_4 	TooLittleTime 	0
scalar FranciscoScenario.node[48].nic.mac1609_4 	TimesIntoBackoff 	31
scalar FranciscoScenario.node[48].nic.mac1609_4 	SlotsBackoff 	128
scalar FranciscoScenario.node[48].nic.mac1609_4 	NumInternalContention 	0
scalar FranciscoScenario.node[48].nic.mac1609_4 	totalBusyTime 	0.12301390513
scalar FranciscoScenario.node[48].veinsmobility 	startTime 	2.8
scalar FranciscoScenario.node[48].veinsmobility 	totalTime 	17.5
scalar FranciscoScenario.node[48].veinsmobility 	stopTime 	20.353757457457
scalar FranciscoScenario.node[48].veinsmobility 	minSpeed 	3.3398299810029
scalar FranciscoScenario.node[48].veinsmobility 	maxSpeed 	13.887877294379
scalar FranciscoScenario.node[48].veinsmobility 	totalDistance 	193.26797999349
scalar FranciscoScenario.node[48].veinsmobility 	totalCO2Emission 	36.7857789327
scalar FranciscoScenario.node[37].appl 	newWarningReceivedSignal:count 	0
attr description  "New Warning Received"
scalar FranciscoScenario.node[37].appl 	messageReceivedSignal:count 	0
attr description  "Message Received"
scalar FranciscoScenario.node[37].appl 	beaconReceivedSignal:count 	0
attr description  "Beacon Received"
scalar FranciscoScenario.node[37].appl 	warningReceivedSignal:count 	0
attr description  "Warning Received"
scalar FranciscoScenario.node[37].nic.phy80211p 	busyTime 	0
scalar FranciscoScenario.node[37].nic.mac1609_4 	ReceivedUnicastPackets 	0
scalar FranciscoScenario.node[37].nic.mac1609_4 	ReceivedBroadcasts 	0
scalar FranciscoScenario.node[37].nic.mac1609_4 	SentPackets 	0
scalar FranciscoScenario.node[37].nic.mac1609_4 	SNIRLostPackets 	0
scalar FranciscoScenario.node[37].nic.mac1609_4 	RXTXLostPackets 	0
scalar FranciscoScenario.node[37].nic.mac1609_4 	TotalLostPackets 	0
scalar FranciscoScenario.node[37].nic.mac1609_4 	DroppedPacketsInMac 	0
scalar FranciscoScenario.node[37].nic.mac1609_4 	TooLittleTime 	0
scalar FranciscoScenario.node[37].nic.mac1609_4 	TimesIntoBackoff 	0
scalar FranciscoScenario.node[37].nic.mac1609_4 	SlotsBackoff 	0
scalar FranciscoScenario.node[37].nic.mac1609_4 	NumInternalContention 	0
scalar FranciscoScenario.node[37].nic.mac1609_4 	totalBusyTime 	0
scalar FranciscoScenario.node[37].veinsmobility 	startTime 	1.2
scalar FranciscoScenario.node[37].veinsmobility 	totalTime 	19.1
scalar FranciscoScenario.node[37].veinsmobility 	stopTime 	20.353757457457
scalar FranciscoScenario.node[37].veinsmobility 	minSpeed 	13.760405280946
scalar FranciscoScenario.node[37].veinsmobility 	maxSpeed 	13.889597059374
scalar FranciscoScenario.node[37].veinsmobility 	totalDistance 	264.11558825771
scalar FranciscoScenario.node[37].veinsmobility 	totalCO2Emission 	44.182480776495
scalar FranciscoScenario.node[38].appl 	newWarningReceivedSignal:count 	1
attr description  "New Warning Received"
scalar FranciscoScenario.node[38].appl 	messageReceivedSignal:count 	52
attr description  "Message Received"
scalar FranciscoScenario.node[38].appl 	beaconReceivedSignal:count 	0
attr description  "Beacon Received"
scalar FranciscoScenario.node[38].appl 	warningReceivedSignal:count 	52
attr description  "Warning Received"
scalar FranciscoScenario.node[38].nic.phy80211p 	busyTime 	0.014321993912855
scalar FranciscoScenario.node[38].nic.mac1609_4 	ReceivedUnicastPackets 	0
scalar FranciscoScenario.node[38].nic.mac1609_4 	ReceivedBroadcasts 	52
scalar FranciscoScenario.node[38].nic.mac1609_4 	SentPackets 	52
scalar FranciscoScenario.node[38].nic.mac1609_4 	SNIRLostPackets 	2232
scalar FranciscoScenario.node[38].nic.mac1609_4 	RXTXLostPackets 	126
scalar FranciscoScenario.node[38].nic.mac1609_4 	TotalLostPackets 	2358
scalar FranciscoScenario.node[38].nic.mac1609_4 	DroppedPacketsInMac 	0
scalar FranciscoScenario.node[38].nic.mac1609_4 	TooLittleTime 	0
scalar FranciscoScenario.node[38].nic.mac1609_4 	TimesIntoBackoff 	61
scalar FranciscoScenario.node[38].nic.mac1609_4 	SlotsBackoff 	233
scalar FranciscoScenario.node[38].nic.mac1609_4 	NumInternalContention 	0
scalar FranciscoScenario.node[38].nic.mac1609_4 	totalBusyTime 	0.115362886466
scalar FranciscoScenario.node[38].veinsmobility 	startTime 	1.2
scalar FranciscoScenario.node[38].veinsmobility 	totalTime 	19.1
scalar FranciscoScenario.node[38].veinsmobility 	stopTime 	20.353757457457
scalar FranciscoScenario.node[38].veinsmobility 	minSpeed 	3.4537000719337
scalar FranciscoScenario.node[38].veinsmobility 	maxSpeed 	13.88847425048
scalar FranciscoScenario.node[38].veinsmobility 	totalDistance 	219.67721825443
scalar FranciscoScenario.node[38].veinsmobility 	totalCO2Emission 	57.721687095727
scalar FranciscoScenario.node[39].appl 	newWarningReceivedSignal:count 	1
attr description  "New Warning Received"
scalar FranciscoScenario.node[39].appl 	messageReceivedSignal:count 	28
attr description  "Message Received"
scalar FranciscoScenario.node[39].appl 	beaconReceivedSignal:count 	0
attr description  "Beacon Received"
scalar FranciscoScenario.node[39].appl 	warningReceivedSignal:count 	28
attr description  "Warning Received"
scalar FranciscoScenario.node[39].nic.phy80211p 	busyTime 	0.015086334795343
scalar FranciscoScenario.node[39].nic.mac1609_4 	ReceivedUnicastPackets 	0
scalar FranciscoScenario.node[39].nic.mac1609_4 	ReceivedBroadcasts 	28
scalar FranciscoScenario.node[39].nic.mac1609_4 	SentPackets 	27
scalar FranciscoScenario.node[39].nic.mac1609_4 	SNIRLostPackets 	2378
scalar FranciscoScenario.node[39].nic.mac1609_4 	RXTXLostPackets 	73
scalar FranciscoScenario.node[39].nic.mac1609_4 	TotalLostPackets 	2451
scalar FranciscoScenario.node[39].nic.mac1609_4 	DroppedPacketsInMac 	0
scalar FranciscoScenario.node[39].nic.mac1609_4 	TooLittleTime 	0
scalar FranciscoScenario.node[39].nic.mac1609_4 	TimesIntoBackoff 	32
scalar FranciscoScenario.node[39].nic.mac1609_4 	SlotsBackoff 	117
scalar FranciscoScenario.node[39].nic.mac1609_4 	NumInternalContention 	0
scalar FranciscoScenario.node[39].nic.mac1609_4 	totalBusyTime 	0.12374689827
scalar FranciscoScenario.node[39].veinsmobility 	startTime 	1.2
scalar FranciscoScenario.node[39].veinsmobility 	totalTime 	19.1
scalar FranciscoScenario.node[39].veinsmobility 	stopTime 	20.353757457457
scalar FranciscoScenario.node[39].veinsmobility 	minSpeed 	3.3541134953758
scalar FranciscoScenario.node[39].veinsmobility 	maxSpeed 	13.887592166765
scalar FranciscoScenario.node[39].veinsmobility 	totalDistance 	219.41603805466
scalar FranciscoScenario.node[39].veinsmobility 	totalCO2Emission 	51.454871562351
scalar FranciscoScenario.node[40].appl 	newWarningReceivedSignal:count 	1
attr description  "New Warning Received"
scalar FranciscoScenario.node[40].appl 	messageReceivedSignal:count 	21
attr description  "Message Received"
scalar FranciscoScenario.node[40].appl 	beaconReceivedSignal:count 	0
attr description  "Beacon Received"
scalar FranciscoScenario.node[40].appl 	warningReceivedSignal:count 	21
attr description  "Warning Received"
scalar FranciscoScenario.node[40].nic.phy80211p 	busyTime 	0.016157665048667
scalar FranciscoScenario.node[40].nic.mac1609_4 	ReceivedUnicastPackets 	0
scalar FranciscoScenario.node[40].nic.mac1609_4 	ReceivedBroadcasts 	21
scalar FranciscoScenario.node[40].nic.mac1609_4 	SentPackets 	20
scalar FranciscoScenario.node[40].nic.mac1609_4 	SNIRLostPackets 	2553
scalar FranciscoScenario.node[40].nic.mac1609_4 	RXTXLostPackets 	57
scalar FranciscoScenario.node[40].nic.mac1609_4 	TotalLostPackets 	2610
scalar FranciscoScenario.node[40].nic.mac1609_4 	DroppedPacketsInMac 	0
scalar FranciscoScenario.node[40].nic.mac1609_4 	TooLittleTime 	0
scalar FranciscoScenario.node[40].nic.mac1609_4 	TimesIntoBackoff 	26
scalar FranciscoScenario.node[40].nic.mac1609_4 	SlotsBackoff 	111
scalar FranciscoScenario.node[40].nic.mac1609_4 	NumInternalContention 	0
scalar FranciscoScenario.node[40].nic.mac1609_4 	totalBusyTime 	0.119559686955
scalar FranciscoScenario.node[40].veinsmobility 	startTime 	1.2
scalar FranciscoScenario.node[40].veinsmobility 	totalTime 	19.1
scalar FranciscoScenario.node[40].veinsmobility 	stopTime 	20.353757457457
scalar FranciscoScenario.node[40].veinsmobility 	minSpeed 	3.5497557801444
scalar FranciscoScenario.node[40].veinsmobility 	maxSpeed 	13.887178765009
scalar FranciscoScenario.node[40].veinsmobility 	totalDistance 	220.73997372704
scalar FranciscoScenario.node[40].veinsmobility 	totalCO2Emission 	52.155335168617
scalar FranciscoScenario.node[49].appl 	newWarningReceivedSignal:count 	1
attr description  "New Warning Received"
scalar FranciscoScenario.node[49].appl 	messageReceivedSignal:count 	27
attr description  "Message Received"
scalar FranciscoScenario.node[49].appl 	beaconReceivedSignal:count 	0
attr description  "Beacon Received"
scalar FranciscoScenario.node[49].appl 	warningReceivedSignal:count 	27
attr description  "Warning Received"
scalar FranciscoScenario.node[49].nic.phy80211p 	busyTime 	0.016851092892897
scalar FranciscoScenario.node[49].nic.mac1609_4 	ReceivedUnicastPackets 	0
scalar FranciscoScenario.node[49].nic.mac1609_4 	ReceivedBroadcasts 	27
scalar FranciscoScenario.node[49].nic.mac1609_4 	SentPackets 	27
scalar FranciscoScenario.node[49].nic.mac1609_4 	SNIRLostPackets 	2433
scalar FranciscoScenario.node[49].nic.mac1609_4 	RXTXLostPackets 	87
scalar FranciscoScenario.node[49].nic.mac1609_4 	TotalLostPackets 	2520
scalar FranciscoScenario.node[49].nic.mac1609_4 	DroppedPacketsInMac 	0
scalar FranciscoScenario.node[49].nic.mac1609_4 	TooLittleTime 	0
scalar FranciscoScenario.node[49].nic.mac1609_4 	TimesIntoBackoff 	35
scalar FranciscoScenario.node[49].nic.mac1609_4 	SlotsBackoff 	121
scalar FranciscoScenario.node[49].nic.mac1609_4 	NumInternalContention 	0
scalar FranciscoScenario.node[49].nic.mac1609_4 	totalBusyTime 	0.118869210844
scalar FranciscoScenario.node[49].veinsmobility 	startTime 	2.8
scalar FranciscoScenario.node[49].veinsmobility 	totalTime 	17.5
scalar FranciscoScenario.node[49].veinsmobility 	stopTime 	20.353757457457
scalar FranciscoScenario.node[49].veinsmobility 	minSpeed 	3.3923245960451
scalar FranciscoScenario.node[49].veinsmobility 	maxSpeed 	13.889498196724
scalar FranciscoScenario.node[49].veinsmobility 	totalDistance 	194.24537132542
scalar FranciscoScenario.node[49].veinsmobility 	totalCO2Emission 	36.552295285485
scalar FranciscoScenario.stats 	allMessagesReceivedSignal:count 	8196
attr description  "All Messages Received"
scalar FranciscoScenario.stats 	allWarningsReceivedSignal:count 	8196
attr description  "All Warnings Received"
scalar FranciscoScenario.stats 	allNewWarningsReceivedSignal:count 	66
attr description  "All New Warnings Received"
scalar FranciscoScenario.stats 	allBeaconsReceivedSignal:count 	0
attr description  "All Beacons Received"
