version 2
run Flooding-0-20140902-14:24:53-17286
attr configname Flooding
attr datetime 20140902-14:24:53
attr experiment Flooding
attr inifile omnetpp.ini
attr iterationvars ""
attr iterationvars2 $repetition=0
attr measurement ""
attr network src.modules.scenario.FranciscoScenario
attr processid 17286
attr repetition 0
attr replication #0
attr resultdir results
attr runnumber 0
attr seedset 0

scalar FranciscoScenario.node[23].appl 	newWarningReceivedSignal:count 	0
attr description  "New Warning Received"
scalar FranciscoScenario.node[23].appl 	messageReceivedSignal:count 	0
attr description  "Message Received"
scalar FranciscoScenario.node[23].appl 	beaconReceivedSignal:count 	0
attr description  "Beacon Received"
scalar FranciscoScenario.node[23].appl 	warningReceivedSignal:count 	0
attr description  "Warning Received"
scalar FranciscoScenario.node[23].nic.phy80211p 	busyTime 	0
scalar FranciscoScenario.node[23].nic.mac1609_4 	ReceivedUnicastPackets 	0
scalar FranciscoScenario.node[23].nic.mac1609_4 	ReceivedBroadcasts 	0
scalar FranciscoScenario.node[23].nic.mac1609_4 	SentPackets 	0
scalar FranciscoScenario.node[23].nic.mac1609_4 	SNIRLostPackets 	0
scalar FranciscoScenario.node[23].nic.mac1609_4 	RXTXLostPackets 	0
scalar FranciscoScenario.node[23].nic.mac1609_4 	TotalLostPackets 	0
scalar FranciscoScenario.node[23].nic.mac1609_4 	DroppedPacketsInMac 	0
scalar FranciscoScenario.node[23].nic.mac1609_4 	TooLittleTime 	0
scalar FranciscoScenario.node[23].nic.mac1609_4 	TimesIntoBackoff 	0
scalar FranciscoScenario.node[23].nic.mac1609_4 	SlotsBackoff 	0
scalar FranciscoScenario.node[23].nic.mac1609_4 	NumInternalContention 	0
scalar FranciscoScenario.node[23].nic.mac1609_4 	totalBusyTime 	0
scalar FranciscoScenario.node[23].veinsmobility 	startTime 	1.2
scalar FranciscoScenario.node[23].veinsmobility 	totalTime 	0
scalar FranciscoScenario.node[23].veinsmobility 	stopTime 	1.3
scalar FranciscoScenario.node[23].veinsmobility 	totalDistance 	0
scalar FranciscoScenario.node[23].veinsmobility 	totalCO2Emission 	0
scalar FranciscoScenario.node[0].appl 	newWarningReceivedSignal:count 	1
attr description  "New Warning Received"
scalar FranciscoScenario.node[0].appl 	messageReceivedSignal:count 	12
attr description  "Message Received"
scalar FranciscoScenario.node[0].appl 	beaconReceivedSignal:count 	0
attr description  "Beacon Received"
scalar FranciscoScenario.node[0].appl 	warningReceivedSignal:count 	12
attr description  "Warning Received"
scalar FranciscoScenario.node[0].nic.phy80211p 	busyTime 	0.00032903225532256
scalar FranciscoScenario.node[0].nic.mac1609_4 	ReceivedUnicastPackets 	0
scalar FranciscoScenario.node[0].nic.mac1609_4 	ReceivedBroadcasts 	12
scalar FranciscoScenario.node[0].nic.mac1609_4 	SentPackets 	1
scalar FranciscoScenario.node[0].nic.mac1609_4 	SNIRLostPackets 	39
scalar FranciscoScenario.node[0].nic.mac1609_4 	RXTXLostPackets 	5
scalar FranciscoScenario.node[0].nic.mac1609_4 	TotalLostPackets 	44
scalar FranciscoScenario.node[0].nic.mac1609_4 	DroppedPacketsInMac 	0
scalar FranciscoScenario.node[0].nic.mac1609_4 	TooLittleTime 	0
scalar FranciscoScenario.node[0].nic.mac1609_4 	TimesIntoBackoff 	1
scalar FranciscoScenario.node[0].nic.mac1609_4 	SlotsBackoff 	2
scalar FranciscoScenario.node[0].nic.mac1609_4 	NumInternalContention 	0
scalar FranciscoScenario.node[0].nic.mac1609_4 	totalBusyTime 	0.00424358902
scalar FranciscoScenario.node[0].veinsmobility 	startTime 	0.1
scalar FranciscoScenario.node[0].veinsmobility 	totalTime 	18.6
scalar FranciscoScenario.node[0].veinsmobility 	stopTime 	18.7
scalar FranciscoScenario.node[0].veinsmobility 	minSpeed 	0.25286542447004
scalar FranciscoScenario.node[0].veinsmobility 	maxSpeed 	13.887466601578
scalar FranciscoScenario.node[0].veinsmobility 	totalDistance 	147.82510329571
scalar FranciscoScenario.node[0].veinsmobility 	totalCO2Emission 	68.680919742774
scalar FranciscoScenario.node[1].appl 	newWarningReceivedSignal:count 	1
attr description  "New Warning Received"
scalar FranciscoScenario.node[1].appl 	messageReceivedSignal:count 	13
attr description  "Message Received"
scalar FranciscoScenario.node[1].appl 	beaconReceivedSignal:count 	0
attr description  "Beacon Received"
scalar FranciscoScenario.node[1].appl 	warningReceivedSignal:count 	13
attr description  "Warning Received"
scalar FranciscoScenario.node[1].nic.phy80211p 	busyTime 	0.00023863636164773
scalar FranciscoScenario.node[1].nic.mac1609_4 	ReceivedUnicastPackets 	0
scalar FranciscoScenario.node[1].nic.mac1609_4 	ReceivedBroadcasts 	13
scalar FranciscoScenario.node[1].nic.mac1609_4 	SentPackets 	1
scalar FranciscoScenario.node[1].nic.mac1609_4 	SNIRLostPackets 	22
scalar FranciscoScenario.node[1].nic.mac1609_4 	RXTXLostPackets 	0
scalar FranciscoScenario.node[1].nic.mac1609_4 	TotalLostPackets 	22
scalar FranciscoScenario.node[1].nic.mac1609_4 	DroppedPacketsInMac 	0
scalar FranciscoScenario.node[1].nic.mac1609_4 	TooLittleTime 	0
scalar FranciscoScenario.node[1].nic.mac1609_4 	TimesIntoBackoff 	1
scalar FranciscoScenario.node[1].nic.mac1609_4 	SlotsBackoff 	1
scalar FranciscoScenario.node[1].nic.mac1609_4 	NumInternalContention 	0
scalar FranciscoScenario.node[1].nic.mac1609_4 	totalBusyTime 	0.003072701846
scalar FranciscoScenario.node[1].veinsmobility 	startTime 	1.1
scalar FranciscoScenario.node[1].veinsmobility 	totalTime 	17.6
scalar FranciscoScenario.node[1].veinsmobility 	stopTime 	18.7
scalar FranciscoScenario.node[1].veinsmobility 	minSpeed 	0.2550030377931
scalar FranciscoScenario.node[1].veinsmobility 	maxSpeed 	13.880320052863
scalar FranciscoScenario.node[1].veinsmobility 	totalDistance 	151.23377607092
scalar FranciscoScenario.node[1].veinsmobility 	totalCO2Emission 	71.168357382742
scalar FranciscoScenario.node[203].appl 	newWarningReceivedSignal:count 	1
attr description  "New Warning Received"
scalar FranciscoScenario.node[203].appl 	messageReceivedSignal:count 	11
attr description  "Message Received"
scalar FranciscoScenario.node[203].appl 	beaconReceivedSignal:count 	0
attr description  "Beacon Received"
scalar FranciscoScenario.node[203].appl 	warningReceivedSignal:count 	11
attr description  "Warning Received"
scalar FranciscoScenario.node[203].nic.phy80211p 	busyTime 	0.00096279068965116
scalar FranciscoScenario.node[203].nic.mac1609_4 	ReceivedUnicastPackets 	0
scalar FranciscoScenario.node[203].nic.mac1609_4 	ReceivedBroadcasts 	11
scalar FranciscoScenario.node[203].nic.mac1609_4 	SentPackets 	1
scalar FranciscoScenario.node[203].nic.mac1609_4 	SNIRLostPackets 	58
scalar FranciscoScenario.node[203].nic.mac1609_4 	RXTXLostPackets 	1
scalar FranciscoScenario.node[203].nic.mac1609_4 	TotalLostPackets 	59
scalar FranciscoScenario.node[203].nic.mac1609_4 	DroppedPacketsInMac 	0
scalar FranciscoScenario.node[203].nic.mac1609_4 	TooLittleTime 	0
scalar FranciscoScenario.node[203].nic.mac1609_4 	TimesIntoBackoff 	2
scalar FranciscoScenario.node[203].nic.mac1609_4 	SlotsBackoff 	12
scalar FranciscoScenario.node[203].nic.mac1609_4 	NumInternalContention 	0
scalar FranciscoScenario.node[203].nic.mac1609_4 	totalBusyTime 	0.004903352274
scalar FranciscoScenario.node[203].veinsmobility 	startTime 	10.1
scalar FranciscoScenario.node[203].veinsmobility 	totalTime 	8.6
scalar FranciscoScenario.node[203].veinsmobility 	stopTime 	18.7
scalar FranciscoScenario.node[203].veinsmobility 	minSpeed 	0.25565228065522
scalar FranciscoScenario.node[203].veinsmobility 	maxSpeed 	13.436141513523
scalar FranciscoScenario.node[203].veinsmobility 	totalDistance 	66.798128933043
scalar FranciscoScenario.node[203].veinsmobility 	totalCO2Emission 	33.951267529008
scalar FranciscoScenario.node[204].appl 	newWarningReceivedSignal:count 	1
attr description  "New Warning Received"
scalar FranciscoScenario.node[204].appl 	messageReceivedSignal:count 	17
attr description  "Message Received"
scalar FranciscoScenario.node[204].appl 	beaconReceivedSignal:count 	0
attr description  "Beacon Received"
scalar FranciscoScenario.node[204].appl 	warningReceivedSignal:count 	17
attr description  "Warning Received"
scalar FranciscoScenario.node[204].nic.phy80211p 	busyTime 	0.0010105263073684
scalar FranciscoScenario.node[204].nic.mac1609_4 	ReceivedUnicastPackets 	0
scalar FranciscoScenario.node[204].nic.mac1609_4 	ReceivedBroadcasts 	17
scalar FranciscoScenario.node[204].nic.mac1609_4 	SentPackets 	1
scalar FranciscoScenario.node[204].nic.mac1609_4 	SNIRLostPackets 	47
scalar FranciscoScenario.node[204].nic.mac1609_4 	RXTXLostPackets 	2
scalar FranciscoScenario.node[204].nic.mac1609_4 	TotalLostPackets 	49
scalar FranciscoScenario.node[204].nic.mac1609_4 	DroppedPacketsInMac 	0
scalar FranciscoScenario.node[204].nic.mac1609_4 	TooLittleTime 	0
scalar FranciscoScenario.node[204].nic.mac1609_4 	TimesIntoBackoff 	2
scalar FranciscoScenario.node[204].nic.mac1609_4 	SlotsBackoff 	7
scalar FranciscoScenario.node[204].nic.mac1609_4 	NumInternalContention 	0
scalar FranciscoScenario.node[204].nic.mac1609_4 	totalBusyTime 	0.00458801968
scalar FranciscoScenario.node[204].veinsmobility 	startTime 	11.1
scalar FranciscoScenario.node[204].veinsmobility 	totalTime 	7.6
scalar FranciscoScenario.node[204].veinsmobility 	stopTime 	18.7
scalar FranciscoScenario.node[204].veinsmobility 	minSpeed 	0.00052193259175529
scalar FranciscoScenario.node[204].veinsmobility 	maxSpeed 	0.77698924784155
scalar FranciscoScenario.node[204].veinsmobility 	totalDistance 	0.99878526973735
scalar FranciscoScenario.node[204].veinsmobility 	totalCO2Emission 	8.143491357041
scalar FranciscoScenario.node[206].appl 	newWarningReceivedSignal:count 	0
attr description  "New Warning Received"
scalar FranciscoScenario.node[206].appl 	messageReceivedSignal:count 	0
attr description  "Message Received"
scalar FranciscoScenario.node[206].appl 	beaconReceivedSignal:count 	0
attr description  "Beacon Received"
scalar FranciscoScenario.node[206].appl 	warningReceivedSignal:count 	0
attr description  "Warning Received"
scalar FranciscoScenario.node[206].nic.phy80211p 	busyTime 	0
scalar FranciscoScenario.node[206].nic.mac1609_4 	ReceivedUnicastPackets 	0
scalar FranciscoScenario.node[206].nic.mac1609_4 	ReceivedBroadcasts 	0
scalar FranciscoScenario.node[206].nic.mac1609_4 	SentPackets 	0
scalar FranciscoScenario.node[206].nic.mac1609_4 	SNIRLostPackets 	0
scalar FranciscoScenario.node[206].nic.mac1609_4 	RXTXLostPackets 	0
scalar FranciscoScenario.node[206].nic.mac1609_4 	TotalLostPackets 	0
scalar FranciscoScenario.node[206].nic.mac1609_4 	DroppedPacketsInMac 	0
scalar FranciscoScenario.node[206].nic.mac1609_4 	TooLittleTime 	0
scalar FranciscoScenario.node[206].nic.mac1609_4 	TimesIntoBackoff 	0
scalar FranciscoScenario.node[206].nic.mac1609_4 	SlotsBackoff 	0
scalar FranciscoScenario.node[206].nic.mac1609_4 	NumInternalContention 	0
scalar FranciscoScenario.node[206].nic.mac1609_4 	totalBusyTime 	0
scalar FranciscoScenario.node[206].veinsmobility 	startTime 	12.1
scalar FranciscoScenario.node[206].veinsmobility 	totalTime 	6.6
scalar FranciscoScenario.node[206].veinsmobility 	stopTime 	18.7
scalar FranciscoScenario.node[206].veinsmobility 	minSpeed 	0.25715973479534
scalar FranciscoScenario.node[206].veinsmobility 	maxSpeed 	11.160379211477
scalar FranciscoScenario.node[206].veinsmobility 	totalDistance 	43.81266844533
scalar FranciscoScenario.node[206].veinsmobility 	totalCO2Emission 	25.090562697944
scalar FranciscoScenario.node[208].appl 	newWarningReceivedSignal:count 	0
attr description  "New Warning Received"
scalar FranciscoScenario.node[208].appl 	messageReceivedSignal:count 	0
attr description  "Message Received"
scalar FranciscoScenario.node[208].appl 	beaconReceivedSignal:count 	0
attr description  "Beacon Received"
scalar FranciscoScenario.node[208].appl 	warningReceivedSignal:count 	0
attr description  "Warning Received"
scalar FranciscoScenario.node[208].nic.phy80211p 	busyTime 	0
scalar FranciscoScenario.node[208].nic.mac1609_4 	ReceivedUnicastPackets 	0
scalar FranciscoScenario.node[208].nic.mac1609_4 	ReceivedBroadcasts 	0
scalar FranciscoScenario.node[208].nic.mac1609_4 	SentPackets 	0
scalar FranciscoScenario.node[208].nic.mac1609_4 	SNIRLostPackets 	0
scalar FranciscoScenario.node[208].nic.mac1609_4 	RXTXLostPackets 	0
scalar FranciscoScenario.node[208].nic.mac1609_4 	TotalLostPackets 	0
scalar FranciscoScenario.node[208].nic.mac1609_4 	DroppedPacketsInMac 	0
scalar FranciscoScenario.node[208].nic.mac1609_4 	TooLittleTime 	0
scalar FranciscoScenario.node[208].nic.mac1609_4 	TimesIntoBackoff 	0
scalar FranciscoScenario.node[208].nic.mac1609_4 	SlotsBackoff 	0
scalar FranciscoScenario.node[208].nic.mac1609_4 	NumInternalContention 	0
scalar FranciscoScenario.node[208].nic.mac1609_4 	totalBusyTime 	0
scalar FranciscoScenario.node[208].veinsmobility 	startTime 	13.1
scalar FranciscoScenario.node[208].veinsmobility 	totalTime 	5.6
scalar FranciscoScenario.node[208].veinsmobility 	stopTime 	18.7
scalar FranciscoScenario.node[208].veinsmobility 	minSpeed 	0.25973333814973
scalar FranciscoScenario.node[208].veinsmobility 	maxSpeed 	11.191089672801
scalar FranciscoScenario.node[208].veinsmobility 	totalDistance 	33.066899155873
scalar FranciscoScenario.node[208].veinsmobility 	totalCO2Emission 	23.254632870965
scalar FranciscoScenario.node[209].appl 	newWarningReceivedSignal:count 	0
attr description  "New Warning Received"
scalar FranciscoScenario.node[209].appl 	messageReceivedSignal:count 	0
attr description  "Message Received"
scalar FranciscoScenario.node[209].appl 	beaconReceivedSignal:count 	0
attr description  "Beacon Received"
scalar FranciscoScenario.node[209].appl 	warningReceivedSignal:count 	0
attr description  "Warning Received"
scalar FranciscoScenario.node[209].nic.phy80211p 	busyTime 	0
scalar FranciscoScenario.node[209].nic.mac1609_4 	ReceivedUnicastPackets 	0
scalar FranciscoScenario.node[209].nic.mac1609_4 	ReceivedBroadcasts 	0
scalar FranciscoScenario.node[209].nic.mac1609_4 	SentPackets 	0
scalar FranciscoScenario.node[209].nic.mac1609_4 	SNIRLostPackets 	0
scalar FranciscoScenario.node[209].nic.mac1609_4 	RXTXLostPackets 	0
scalar FranciscoScenario.node[209].nic.mac1609_4 	TotalLostPackets 	0
scalar FranciscoScenario.node[209].nic.mac1609_4 	DroppedPacketsInMac 	0
scalar FranciscoScenario.node[209].nic.mac1609_4 	TooLittleTime 	0
scalar FranciscoScenario.node[209].nic.mac1609_4 	TimesIntoBackoff 	0
scalar FranciscoScenario.node[209].nic.mac1609_4 	SlotsBackoff 	0
scalar FranciscoScenario.node[209].nic.mac1609_4 	NumInternalContention 	0
scalar FranciscoScenario.node[209].nic.mac1609_4 	totalBusyTime 	0
scalar FranciscoScenario.node[209].veinsmobility 	startTime 	14.1
scalar FranciscoScenario.node[209].veinsmobility 	totalTime 	4.6
scalar FranciscoScenario.node[209].veinsmobility 	stopTime 	18.7
scalar FranciscoScenario.node[209].veinsmobility 	minSpeed 	0.24931387902284
scalar FranciscoScenario.node[209].veinsmobility 	maxSpeed 	9.2666244062086
scalar FranciscoScenario.node[209].veinsmobility 	totalDistance 	22.236236312923
scalar FranciscoScenario.node[209].veinsmobility 	totalCO2Emission 	16.721948017939
scalar FranciscoScenario.node[210].appl 	newWarningReceivedSignal:count 	0
attr description  "New Warning Received"
scalar FranciscoScenario.node[210].appl 	messageReceivedSignal:count 	0
attr description  "Message Received"
scalar FranciscoScenario.node[210].appl 	beaconReceivedSignal:count 	0
attr description  "Beacon Received"
scalar FranciscoScenario.node[210].appl 	warningReceivedSignal:count 	0
attr description  "Warning Received"
scalar FranciscoScenario.node[210].nic.phy80211p 	busyTime 	0
scalar FranciscoScenario.node[210].nic.mac1609_4 	ReceivedUnicastPackets 	0
scalar FranciscoScenario.node[210].nic.mac1609_4 	ReceivedBroadcasts 	0
scalar FranciscoScenario.node[210].nic.mac1609_4 	SentPackets 	0
scalar FranciscoScenario.node[210].nic.mac1609_4 	SNIRLostPackets 	0
scalar FranciscoScenario.node[210].nic.mac1609_4 	RXTXLostPackets 	0
scalar FranciscoScenario.node[210].nic.mac1609_4 	TotalLostPackets 	0
scalar FranciscoScenario.node[210].nic.mac1609_4 	DroppedPacketsInMac 	0
scalar FranciscoScenario.node[210].nic.mac1609_4 	TooLittleTime 	0
scalar FranciscoScenario.node[210].nic.mac1609_4 	TimesIntoBackoff 	0
scalar FranciscoScenario.node[210].nic.mac1609_4 	SlotsBackoff 	0
scalar FranciscoScenario.node[210].nic.mac1609_4 	NumInternalContention 	0
scalar FranciscoScenario.node[210].nic.mac1609_4 	totalBusyTime 	0
scalar FranciscoScenario.node[210].veinsmobility 	startTime 	15.1
scalar FranciscoScenario.node[210].veinsmobility 	totalTime 	3.6
scalar FranciscoScenario.node[210].veinsmobility 	stopTime 	18.7
scalar FranciscoScenario.node[210].veinsmobility 	minSpeed 	0.24989726153412
scalar FranciscoScenario.node[210].veinsmobility 	maxSpeed 	7.4737588454776
scalar FranciscoScenario.node[210].veinsmobility 	totalDistance 	14.328432507985
scalar FranciscoScenario.node[210].veinsmobility 	totalCO2Emission 	11.52168335596
scalar FranciscoScenario.node[211].appl 	newWarningReceivedSignal:count 	0
attr description  "New Warning Received"
scalar FranciscoScenario.node[211].appl 	messageReceivedSignal:count 	0
attr description  "Message Received"
scalar FranciscoScenario.node[211].appl 	beaconReceivedSignal:count 	0
attr description  "Beacon Received"
scalar FranciscoScenario.node[211].appl 	warningReceivedSignal:count 	0
attr description  "Warning Received"
scalar FranciscoScenario.node[211].nic.phy80211p 	busyTime 	0
scalar FranciscoScenario.node[211].nic.mac1609_4 	ReceivedUnicastPackets 	0
scalar FranciscoScenario.node[211].nic.mac1609_4 	ReceivedBroadcasts 	0
scalar FranciscoScenario.node[211].nic.mac1609_4 	SentPackets 	0
scalar FranciscoScenario.node[211].nic.mac1609_4 	SNIRLostPackets 	0
scalar FranciscoScenario.node[211].nic.mac1609_4 	RXTXLostPackets 	0
scalar FranciscoScenario.node[211].nic.mac1609_4 	TotalLostPackets 	0
scalar FranciscoScenario.node[211].nic.mac1609_4 	DroppedPacketsInMac 	0
scalar FranciscoScenario.node[211].nic.mac1609_4 	TooLittleTime 	0
scalar FranciscoScenario.node[211].nic.mac1609_4 	TimesIntoBackoff 	0
scalar FranciscoScenario.node[211].nic.mac1609_4 	SlotsBackoff 	0
scalar FranciscoScenario.node[211].nic.mac1609_4 	NumInternalContention 	0
scalar FranciscoScenario.node[211].nic.mac1609_4 	totalBusyTime 	0
scalar FranciscoScenario.node[211].veinsmobility 	startTime 	16.1
scalar FranciscoScenario.node[211].veinsmobility 	totalTime 	2.6
scalar FranciscoScenario.node[211].veinsmobility 	stopTime 	18.7
scalar FranciscoScenario.node[211].veinsmobility 	minSpeed 	0.25189146345854
scalar FranciscoScenario.node[211].veinsmobility 	maxSpeed 	5.7210633994381
scalar FranciscoScenario.node[211].veinsmobility 	totalDistance 	7.9652383532283
scalar FranciscoScenario.node[211].veinsmobility 	totalCO2Emission 	7.2531908366202
scalar FranciscoScenario.node[213].appl 	newWarningReceivedSignal:count 	0
attr description  "New Warning Received"
scalar FranciscoScenario.node[213].appl 	messageReceivedSignal:count 	0
attr description  "Message Received"
scalar FranciscoScenario.node[213].appl 	beaconReceivedSignal:count 	0
attr description  "Beacon Received"
scalar FranciscoScenario.node[213].appl 	warningReceivedSignal:count 	0
attr description  "Warning Received"
scalar FranciscoScenario.node[213].nic.phy80211p 	busyTime 	0
scalar FranciscoScenario.node[213].nic.mac1609_4 	ReceivedUnicastPackets 	0
scalar FranciscoScenario.node[213].nic.mac1609_4 	ReceivedBroadcasts 	0
scalar FranciscoScenario.node[213].nic.mac1609_4 	SentPackets 	0
scalar FranciscoScenario.node[213].nic.mac1609_4 	SNIRLostPackets 	0
scalar FranciscoScenario.node[213].nic.mac1609_4 	RXTXLostPackets 	0
scalar FranciscoScenario.node[213].nic.mac1609_4 	TotalLostPackets 	0
scalar FranciscoScenario.node[213].nic.mac1609_4 	DroppedPacketsInMac 	0
scalar FranciscoScenario.node[213].nic.mac1609_4 	TooLittleTime 	0
scalar FranciscoScenario.node[213].nic.mac1609_4 	TimesIntoBackoff 	0
scalar FranciscoScenario.node[213].nic.mac1609_4 	SlotsBackoff 	0
scalar FranciscoScenario.node[213].nic.mac1609_4 	NumInternalContention 	0
scalar FranciscoScenario.node[213].nic.mac1609_4 	totalBusyTime 	0
scalar FranciscoScenario.node[213].veinsmobility 	startTime 	18.1
scalar FranciscoScenario.node[213].veinsmobility 	totalTime 	0.6
scalar FranciscoScenario.node[213].veinsmobility 	stopTime 	18.7
scalar FranciscoScenario.node[213].veinsmobility 	minSpeed 	0.25756811461109
scalar FranciscoScenario.node[213].veinsmobility 	maxSpeed 	1.4083562623343
scalar FranciscoScenario.node[213].veinsmobility 	totalDistance 	0.50827321658298
scalar FranciscoScenario.node[213].veinsmobility 	totalCO2Emission 	0.84138619147086
scalar FranciscoScenario.node[165].appl 	newWarningReceivedSignal:count 	1
attr description  "New Warning Received"
scalar FranciscoScenario.node[165].appl 	messageReceivedSignal:count 	10
attr description  "Message Received"
scalar FranciscoScenario.node[165].appl 	beaconReceivedSignal:count 	0
attr description  "Beacon Received"
scalar FranciscoScenario.node[165].appl 	warningReceivedSignal:count 	10
attr description  "Warning Received"
scalar FranciscoScenario.node[165].nic.phy80211p 	busyTime 	0.00070588234705882
scalar FranciscoScenario.node[165].nic.mac1609_4 	ReceivedUnicastPackets 	0
scalar FranciscoScenario.node[165].nic.mac1609_4 	ReceivedBroadcasts 	10
scalar FranciscoScenario.node[165].nic.mac1609_4 	SentPackets 	1
scalar FranciscoScenario.node[165].nic.mac1609_4 	SNIRLostPackets 	80
scalar FranciscoScenario.node[165].nic.mac1609_4 	RXTXLostPackets 	1
scalar FranciscoScenario.node[165].nic.mac1609_4 	TotalLostPackets 	81
scalar FranciscoScenario.node[165].nic.mac1609_4 	DroppedPacketsInMac 	0
scalar FranciscoScenario.node[165].nic.mac1609_4 	TooLittleTime 	0
scalar FranciscoScenario.node[165].nic.mac1609_4 	TimesIntoBackoff 	2
scalar FranciscoScenario.node[165].nic.mac1609_4 	SlotsBackoff 	7
scalar FranciscoScenario.node[165].nic.mac1609_4 	NumInternalContention 	0
scalar FranciscoScenario.node[165].nic.mac1609_4 	totalBusyTime 	0.005924226312
scalar FranciscoScenario.node[165].veinsmobility 	startTime 	3.4
scalar FranciscoScenario.node[165].veinsmobility 	totalTime 	15.3
scalar FranciscoScenario.node[165].veinsmobility 	stopTime 	18.7
scalar FranciscoScenario.node[165].veinsmobility 	minSpeed 	0.25850802434678
scalar FranciscoScenario.node[165].veinsmobility 	maxSpeed 	11.677908115261
scalar FranciscoScenario.node[165].veinsmobility 	totalDistance 	79.932286122667
scalar FranciscoScenario.node[165].veinsmobility 	totalCO2Emission 	35.625610290245
scalar FranciscoScenario.node[164].appl 	newWarningReceivedSignal:count 	1
attr description  "New Warning Received"
scalar FranciscoScenario.node[164].appl 	messageReceivedSignal:count 	9
attr description  "Message Received"
scalar FranciscoScenario.node[164].appl 	beaconReceivedSignal:count 	0
attr description  "Beacon Received"
scalar FranciscoScenario.node[164].appl 	warningReceivedSignal:count 	9
attr description  "Warning Received"
scalar FranciscoScenario.node[164].nic.phy80211p 	busyTime 	0.00052307691871795
scalar FranciscoScenario.node[164].nic.mac1609_4 	ReceivedUnicastPackets 	0
scalar FranciscoScenario.node[164].nic.mac1609_4 	ReceivedBroadcasts 	9
scalar FranciscoScenario.node[164].nic.mac1609_4 	SentPackets 	1
scalar FranciscoScenario.node[164].nic.mac1609_4 	SNIRLostPackets 	59
scalar FranciscoScenario.node[164].nic.mac1609_4 	RXTXLostPackets 	0
scalar FranciscoScenario.node[164].nic.mac1609_4 	TotalLostPackets 	59
scalar FranciscoScenario.node[164].nic.mac1609_4 	DroppedPacketsInMac 	0
scalar FranciscoScenario.node[164].nic.mac1609_4 	TooLittleTime 	0
scalar FranciscoScenario.node[164].nic.mac1609_4 	TimesIntoBackoff 	1
scalar FranciscoScenario.node[164].nic.mac1609_4 	SlotsBackoff 	2
scalar FranciscoScenario.node[164].nic.mac1609_4 	NumInternalContention 	0
scalar FranciscoScenario.node[164].nic.mac1609_4 	totalBusyTime 	0.005332172309
scalar FranciscoScenario.node[164].veinsmobility 	startTime 	3.1
scalar FranciscoScenario.node[164].veinsmobility 	totalTime 	15.6
scalar FranciscoScenario.node[164].veinsmobility 	stopTime 	18.7
scalar FranciscoScenario.node[164].veinsmobility 	minSpeed 	0.2540216223523
scalar FranciscoScenario.node[164].veinsmobility 	maxSpeed 	13.888490565165
scalar FranciscoScenario.node[164].veinsmobility 	totalDistance 	168.40199234331
scalar FranciscoScenario.node[164].veinsmobility 	totalCO2Emission 	53.644463529911
scalar FranciscoScenario.node[166].appl 	newWarningReceivedSignal:count 	1
attr description  "New Warning Received"
scalar FranciscoScenario.node[166].appl 	messageReceivedSignal:count 	13
attr description  "Message Received"
scalar FranciscoScenario.node[166].appl 	beaconReceivedSignal:count 	0
attr description  "Beacon Received"
scalar FranciscoScenario.node[166].appl 	warningReceivedSignal:count 	13
attr description  "Warning Received"
scalar FranciscoScenario.node[166].nic.phy80211p 	busyTime 	0.0004191780786986
scalar FranciscoScenario.node[166].nic.mac1609_4 	ReceivedUnicastPackets 	0
scalar FranciscoScenario.node[166].nic.mac1609_4 	ReceivedBroadcasts 	13
scalar FranciscoScenario.node[166].nic.mac1609_4 	SentPackets 	1
scalar FranciscoScenario.node[166].nic.mac1609_4 	SNIRLostPackets 	38
scalar FranciscoScenario.node[166].nic.mac1609_4 	RXTXLostPackets 	0
scalar FranciscoScenario.node[166].nic.mac1609_4 	TotalLostPackets 	38
scalar FranciscoScenario.node[166].nic.mac1609_4 	DroppedPacketsInMac 	0
scalar FranciscoScenario.node[166].nic.mac1609_4 	TooLittleTime 	0
scalar FranciscoScenario.node[166].nic.mac1609_4 	TimesIntoBackoff 	2
scalar FranciscoScenario.node[166].nic.mac1609_4 	SlotsBackoff 	9
scalar FranciscoScenario.node[166].nic.mac1609_4 	NumInternalContention 	0
scalar FranciscoScenario.node[166].nic.mac1609_4 	totalBusyTime 	0.004009504205
scalar FranciscoScenario.node[166].veinsmobility 	startTime 	4.1
scalar FranciscoScenario.node[166].veinsmobility 	totalTime 	14.6
scalar FranciscoScenario.node[166].veinsmobility 	stopTime 	18.7
scalar FranciscoScenario.node[166].veinsmobility 	minSpeed 	0.2553891892496
scalar FranciscoScenario.node[166].veinsmobility 	maxSpeed 	13.186832701428
scalar FranciscoScenario.node[166].veinsmobility 	totalDistance 	99.903607164646
scalar FranciscoScenario.node[166].veinsmobility 	totalCO2Emission 	51.77184652055
scalar FranciscoScenario.node[189].appl 	newWarningReceivedSignal:count 	1
attr description  "New Warning Received"
scalar FranciscoScenario.node[189].appl 	messageReceivedSignal:count 	13
attr description  "Message Received"
scalar FranciscoScenario.node[189].appl 	beaconReceivedSignal:count 	0
attr description  "Beacon Received"
scalar FranciscoScenario.node[189].appl 	warningReceivedSignal:count 	13
attr description  "Warning Received"
scalar FranciscoScenario.node[189].nic.phy80211p 	busyTime 	0.00041503759052628
scalar FranciscoScenario.node[189].nic.mac1609_4 	ReceivedUnicastPackets 	0
scalar FranciscoScenario.node[189].nic.mac1609_4 	ReceivedBroadcasts 	13
scalar FranciscoScenario.node[189].nic.mac1609_4 	SentPackets 	1
scalar FranciscoScenario.node[189].nic.mac1609_4 	SNIRLostPackets 	33
scalar FranciscoScenario.node[189].nic.mac1609_4 	RXTXLostPackets 	0
scalar FranciscoScenario.node[189].nic.mac1609_4 	TotalLostPackets 	33
scalar FranciscoScenario.node[189].nic.mac1609_4 	DroppedPacketsInMac 	0
scalar FranciscoScenario.node[189].nic.mac1609_4 	TooLittleTime 	0
scalar FranciscoScenario.node[189].nic.mac1609_4 	TimesIntoBackoff 	2
scalar FranciscoScenario.node[189].nic.mac1609_4 	SlotsBackoff 	5
scalar FranciscoScenario.node[189].nic.mac1609_4 	NumInternalContention 	0
scalar FranciscoScenario.node[189].nic.mac1609_4 	totalBusyTime 	0.003717269668
scalar FranciscoScenario.node[189].veinsmobility 	startTime 	5.4
scalar FranciscoScenario.node[189].veinsmobility 	totalTime 	13.3
scalar FranciscoScenario.node[189].veinsmobility 	stopTime 	18.7
scalar FranciscoScenario.node[189].veinsmobility 	minSpeed 	0.25660798785393
scalar FranciscoScenario.node[189].veinsmobility 	maxSpeed 	12.347841138577
scalar FranciscoScenario.node[189].veinsmobility 	totalDistance 	112.16048653841
scalar FranciscoScenario.node[189].veinsmobility 	totalCO2Emission 	38.883058599641
scalar FranciscoScenario.node[205].appl 	newWarningReceivedSignal:count 	0
attr description  "New Warning Received"
scalar FranciscoScenario.node[205].appl 	messageReceivedSignal:count 	0
attr description  "Message Received"
scalar FranciscoScenario.node[205].appl 	beaconReceivedSignal:count 	0
attr description  "Beacon Received"
scalar FranciscoScenario.node[205].appl 	warningReceivedSignal:count 	0
attr description  "Warning Received"
scalar FranciscoScenario.node[205].nic.phy80211p 	busyTime 	0
scalar FranciscoScenario.node[205].nic.mac1609_4 	ReceivedUnicastPackets 	0
scalar FranciscoScenario.node[205].nic.mac1609_4 	ReceivedBroadcasts 	0
scalar FranciscoScenario.node[205].nic.mac1609_4 	SentPackets 	0
scalar FranciscoScenario.node[205].nic.mac1609_4 	SNIRLostPackets 	0
scalar FranciscoScenario.node[205].nic.mac1609_4 	RXTXLostPackets 	0
scalar FranciscoScenario.node[205].nic.mac1609_4 	TotalLostPackets 	0
scalar FranciscoScenario.node[205].nic.mac1609_4 	DroppedPacketsInMac 	0
scalar FranciscoScenario.node[205].nic.mac1609_4 	TooLittleTime 	0
scalar FranciscoScenario.node[205].nic.mac1609_4 	TimesIntoBackoff 	0
scalar FranciscoScenario.node[205].nic.mac1609_4 	SlotsBackoff 	0
scalar FranciscoScenario.node[205].nic.mac1609_4 	NumInternalContention 	0
scalar FranciscoScenario.node[205].nic.mac1609_4 	totalBusyTime 	0
scalar FranciscoScenario.node[205].veinsmobility 	startTime 	11.5
scalar FranciscoScenario.node[205].veinsmobility 	totalTime 	7.2
scalar FranciscoScenario.node[205].veinsmobility 	stopTime 	18.7
scalar FranciscoScenario.node[205].veinsmobility 	minSpeed 	0.25234384682355
scalar FranciscoScenario.node[205].veinsmobility 	maxSpeed 	13.888268906425
scalar FranciscoScenario.node[205].veinsmobility 	totalDistance 	54.156878009723
scalar FranciscoScenario.node[205].veinsmobility 	totalCO2Emission 	34.53872468331
scalar FranciscoScenario.node[196].appl 	newWarningReceivedSignal:count 	1
attr description  "New Warning Received"
scalar FranciscoScenario.node[196].appl 	messageReceivedSignal:count 	6
attr description  "Message Received"
scalar FranciscoScenario.node[196].appl 	beaconReceivedSignal:count 	0
attr description  "Beacon Received"
scalar FranciscoScenario.node[196].appl 	warningReceivedSignal:count 	6
attr description  "Warning Received"
scalar FranciscoScenario.node[196].nic.phy80211p 	busyTime 	0.0008275862
scalar FranciscoScenario.node[196].nic.mac1609_4 	ReceivedUnicastPackets 	0
scalar FranciscoScenario.node[196].nic.mac1609_4 	ReceivedBroadcasts 	6
scalar FranciscoScenario.node[196].nic.mac1609_4 	SentPackets 	1
scalar FranciscoScenario.node[196].nic.mac1609_4 	SNIRLostPackets 	74
scalar FranciscoScenario.node[196].nic.mac1609_4 	RXTXLostPackets 	0
scalar FranciscoScenario.node[196].nic.mac1609_4 	TotalLostPackets 	74
scalar FranciscoScenario.node[196].nic.mac1609_4 	DroppedPacketsInMac 	0
scalar FranciscoScenario.node[196].nic.mac1609_4 	TooLittleTime 	0
scalar FranciscoScenario.node[196].nic.mac1609_4 	TimesIntoBackoff 	1
scalar FranciscoScenario.node[196].nic.mac1609_4 	SlotsBackoff 	1
scalar FranciscoScenario.node[196].nic.mac1609_4 	NumInternalContention 	0
scalar FranciscoScenario.node[196].nic.mac1609_4 	totalBusyTime 	0.005404796959
scalar FranciscoScenario.node[196].veinsmobility 	startTime 	7.1
scalar FranciscoScenario.node[196].veinsmobility 	totalTime 	11.6
scalar FranciscoScenario.node[196].veinsmobility 	stopTime 	18.7
scalar FranciscoScenario.node[196].veinsmobility 	minSpeed 	0.25996482142643
scalar FranciscoScenario.node[196].veinsmobility 	maxSpeed 	13.88560179068
scalar FranciscoScenario.node[196].veinsmobility 	totalDistance 	114.67334913933
scalar FranciscoScenario.node[196].veinsmobility 	totalCO2Emission 	44.996509526565
scalar FranciscoScenario.node[199].appl 	newWarningReceivedSignal:count 	1
attr description  "New Warning Received"
scalar FranciscoScenario.node[199].appl 	messageReceivedSignal:count 	9
attr description  "Message Received"
scalar FranciscoScenario.node[199].appl 	beaconReceivedSignal:count 	0
attr description  "Beacon Received"
scalar FranciscoScenario.node[199].appl 	warningReceivedSignal:count 	9
attr description  "Warning Received"
scalar FranciscoScenario.node[199].nic.phy80211p 	busyTime 	0.00095094338830189
scalar FranciscoScenario.node[199].nic.mac1609_4 	ReceivedUnicastPackets 	0
scalar FranciscoScenario.node[199].nic.mac1609_4 	ReceivedBroadcasts 	9
scalar FranciscoScenario.node[199].nic.mac1609_4 	SentPackets 	1
scalar FranciscoScenario.node[199].nic.mac1609_4 	SNIRLostPackets 	75
scalar FranciscoScenario.node[199].nic.mac1609_4 	RXTXLostPackets 	1
scalar FranciscoScenario.node[199].nic.mac1609_4 	TotalLostPackets 	76
scalar FranciscoScenario.node[199].nic.mac1609_4 	DroppedPacketsInMac 	0
scalar FranciscoScenario.node[199].nic.mac1609_4 	TooLittleTime 	0
scalar FranciscoScenario.node[199].nic.mac1609_4 	TimesIntoBackoff 	2
scalar FranciscoScenario.node[199].nic.mac1609_4 	SlotsBackoff 	9
scalar FranciscoScenario.node[199].nic.mac1609_4 	NumInternalContention 	0
scalar FranciscoScenario.node[199].nic.mac1609_4 	totalBusyTime 	0.005632989456
scalar FranciscoScenario.node[199].veinsmobility 	startTime 	8.1
scalar FranciscoScenario.node[199].veinsmobility 	totalTime 	10.6
scalar FranciscoScenario.node[199].veinsmobility 	stopTime 	18.7
scalar FranciscoScenario.node[199].veinsmobility 	minSpeed 	0.25471263598534
scalar FranciscoScenario.node[199].veinsmobility 	maxSpeed 	13.0674431266
scalar FranciscoScenario.node[199].veinsmobility 	totalDistance 	76.521004384082
scalar FranciscoScenario.node[199].veinsmobility 	totalCO2Emission 	35.291320764518
scalar FranciscoScenario.node[201].appl 	newWarningReceivedSignal:count 	1
attr description  "New Warning Received"
scalar FranciscoScenario.node[201].appl 	messageReceivedSignal:count 	9
attr description  "Message Received"
scalar FranciscoScenario.node[201].appl 	beaconReceivedSignal:count 	0
attr description  "Beacon Received"
scalar FranciscoScenario.node[201].appl 	warningReceivedSignal:count 	9
attr description  "Warning Received"
scalar FranciscoScenario.node[201].nic.phy80211p 	busyTime 	0.0011374999905208
scalar FranciscoScenario.node[201].nic.mac1609_4 	ReceivedUnicastPackets 	0
scalar FranciscoScenario.node[201].nic.mac1609_4 	ReceivedBroadcasts 	9
scalar FranciscoScenario.node[201].nic.mac1609_4 	SentPackets 	1
scalar FranciscoScenario.node[201].nic.mac1609_4 	SNIRLostPackets 	82
scalar FranciscoScenario.node[201].nic.mac1609_4 	RXTXLostPackets 	0
scalar FranciscoScenario.node[201].nic.mac1609_4 	TotalLostPackets 	82
scalar FranciscoScenario.node[201].nic.mac1609_4 	DroppedPacketsInMac 	0
scalar FranciscoScenario.node[201].nic.mac1609_4 	TooLittleTime 	0
scalar FranciscoScenario.node[201].nic.mac1609_4 	TimesIntoBackoff 	1
scalar FranciscoScenario.node[201].nic.mac1609_4 	SlotsBackoff 	3
scalar FranciscoScenario.node[201].nic.mac1609_4 	NumInternalContention 	0
scalar FranciscoScenario.node[201].nic.mac1609_4 	totalBusyTime 	0.006007859873
scalar FranciscoScenario.node[201].veinsmobility 	startTime 	9.1
scalar FranciscoScenario.node[201].veinsmobility 	totalTime 	9.6
scalar FranciscoScenario.node[201].veinsmobility 	stopTime 	18.7
scalar FranciscoScenario.node[201].veinsmobility 	minSpeed 	0.044955635078635
scalar FranciscoScenario.node[201].veinsmobility 	maxSpeed 	6.989513471963
scalar FranciscoScenario.node[201].veinsmobility 	totalDistance 	24.402004301358
scalar FranciscoScenario.node[201].veinsmobility 	totalCO2Emission 	16.529815338585
scalar FranciscoScenario.node[187].appl 	newWarningReceivedSignal:count 	1
attr description  "New Warning Received"
scalar FranciscoScenario.node[187].appl 	messageReceivedSignal:count 	12
attr description  "Message Received"
scalar FranciscoScenario.node[187].appl 	beaconReceivedSignal:count 	0
attr description  "Beacon Received"
scalar FranciscoScenario.node[187].appl 	warningReceivedSignal:count 	12
attr description  "Warning Received"
scalar FranciscoScenario.node[187].nic.phy80211p 	busyTime 	0.00049208632683453
scalar FranciscoScenario.node[187].nic.mac1609_4 	ReceivedUnicastPackets 	0
scalar FranciscoScenario.node[187].nic.mac1609_4 	ReceivedBroadcasts 	12
scalar FranciscoScenario.node[187].nic.mac1609_4 	SentPackets 	1
scalar FranciscoScenario.node[187].nic.mac1609_4 	SNIRLostPackets 	45
scalar FranciscoScenario.node[187].nic.mac1609_4 	RXTXLostPackets 	0
scalar FranciscoScenario.node[187].nic.mac1609_4 	TotalLostPackets 	45
scalar FranciscoScenario.node[187].nic.mac1609_4 	DroppedPacketsInMac 	0
scalar FranciscoScenario.node[187].nic.mac1609_4 	TooLittleTime 	0
scalar FranciscoScenario.node[187].nic.mac1609_4 	TimesIntoBackoff 	1
scalar FranciscoScenario.node[187].nic.mac1609_4 	SlotsBackoff 	7
scalar FranciscoScenario.node[187].nic.mac1609_4 	NumInternalContention 	0
scalar FranciscoScenario.node[187].nic.mac1609_4 	totalBusyTime 	0.004243750936
scalar FranciscoScenario.node[187].veinsmobility 	startTime 	4.8
scalar FranciscoScenario.node[187].veinsmobility 	totalTime 	13.9
scalar FranciscoScenario.node[187].veinsmobility 	stopTime 	18.7
scalar FranciscoScenario.node[187].veinsmobility 	minSpeed 	3.3129097317001
scalar FranciscoScenario.node[187].veinsmobility 	maxSpeed 	11.156027865016
scalar FranciscoScenario.node[187].veinsmobility 	totalDistance 	107.04411144526
scalar FranciscoScenario.node[187].veinsmobility 	totalCO2Emission 	33.924569066403
scalar FranciscoScenario.node[193].appl 	newWarningReceivedSignal:count 	1
attr description  "New Warning Received"
scalar FranciscoScenario.node[193].appl 	messageReceivedSignal:count 	11
attr description  "Message Received"
scalar FranciscoScenario.node[193].appl 	beaconReceivedSignal:count 	0
attr description  "Beacon Received"
scalar FranciscoScenario.node[193].appl 	warningReceivedSignal:count 	11
attr description  "Warning Received"
scalar FranciscoScenario.node[193].nic.phy80211p 	busyTime 	0.00056065573303279
scalar FranciscoScenario.node[193].nic.mac1609_4 	ReceivedUnicastPackets 	0
scalar FranciscoScenario.node[193].nic.mac1609_4 	ReceivedBroadcasts 	11
scalar FranciscoScenario.node[193].nic.mac1609_4 	SentPackets 	1
scalar FranciscoScenario.node[193].nic.mac1609_4 	SNIRLostPackets 	46
scalar FranciscoScenario.node[193].nic.mac1609_4 	RXTXLostPackets 	0
scalar FranciscoScenario.node[193].nic.mac1609_4 	TotalLostPackets 	46
scalar FranciscoScenario.node[193].nic.mac1609_4 	DroppedPacketsInMac 	0
scalar FranciscoScenario.node[193].nic.mac1609_4 	TooLittleTime 	0
scalar FranciscoScenario.node[193].nic.mac1609_4 	TimesIntoBackoff 	2
scalar FranciscoScenario.node[193].nic.mac1609_4 	SlotsBackoff 	3
scalar FranciscoScenario.node[193].nic.mac1609_4 	NumInternalContention 	0
scalar FranciscoScenario.node[193].nic.mac1609_4 	totalBusyTime 	0.004243915105
scalar FranciscoScenario.node[193].veinsmobility 	startTime 	6.5
scalar FranciscoScenario.node[193].veinsmobility 	totalTime 	12.2
scalar FranciscoScenario.node[193].veinsmobility 	stopTime 	18.7
scalar FranciscoScenario.node[193].veinsmobility 	minSpeed 	2.4763145975963
scalar FranciscoScenario.node[193].veinsmobility 	maxSpeed 	11.165238830853
scalar FranciscoScenario.node[193].veinsmobility 	totalDistance 	83.368317601861
scalar FranciscoScenario.node[193].veinsmobility 	totalCO2Emission 	18.585487906538
scalar FranciscoScenario.node[167].appl 	newWarningReceivedSignal:count 	1
attr description  "New Warning Received"
scalar FranciscoScenario.node[167].appl 	messageReceivedSignal:count 	16
attr description  "Message Received"
scalar FranciscoScenario.node[167].appl 	beaconReceivedSignal:count 	0
attr description  "Beacon Received"
scalar FranciscoScenario.node[167].appl 	warningReceivedSignal:count 	16
attr description  "Warning Received"
scalar FranciscoScenario.node[167].nic.phy80211p 	busyTime 	0.00035244754951049
scalar FranciscoScenario.node[167].nic.mac1609_4 	ReceivedUnicastPackets 	0
scalar FranciscoScenario.node[167].nic.mac1609_4 	ReceivedBroadcasts 	16
scalar FranciscoScenario.node[167].nic.mac1609_4 	SentPackets 	1
scalar FranciscoScenario.node[167].nic.mac1609_4 	SNIRLostPackets 	26
scalar FranciscoScenario.node[167].nic.mac1609_4 	RXTXLostPackets 	0
scalar FranciscoScenario.node[167].nic.mac1609_4 	TotalLostPackets 	26
scalar FranciscoScenario.node[167].nic.mac1609_4 	DroppedPacketsInMac 	0
scalar FranciscoScenario.node[167].nic.mac1609_4 	TooLittleTime 	0
scalar FranciscoScenario.node[167].nic.mac1609_4 	TimesIntoBackoff 	1
scalar FranciscoScenario.node[167].nic.mac1609_4 	SlotsBackoff 	2
scalar FranciscoScenario.node[167].nic.mac1609_4 	NumInternalContention 	0
scalar FranciscoScenario.node[167].nic.mac1609_4 	totalBusyTime 	0.003646104687
scalar FranciscoScenario.node[167].veinsmobility 	startTime 	4.4
scalar FranciscoScenario.node[167].veinsmobility 	totalTime 	14.3
scalar FranciscoScenario.node[167].veinsmobility 	stopTime 	18.7
scalar FranciscoScenario.node[167].veinsmobility 	minSpeed 	3.2075473044964
scalar FranciscoScenario.node[167].veinsmobility 	maxSpeed 	13.85566365496
scalar FranciscoScenario.node[167].veinsmobility 	totalDistance 	107.82368761532
scalar FranciscoScenario.node[167].veinsmobility 	totalCO2Emission 	35.46247729478
scalar FranciscoScenario.node[126].appl 	newWarningReceivedSignal:count 	1
attr description  "New Warning Received"
scalar FranciscoScenario.node[126].appl 	messageReceivedSignal:count 	20
attr description  "Message Received"
scalar FranciscoScenario.node[126].appl 	beaconReceivedSignal:count 	0
attr description  "Beacon Received"
scalar FranciscoScenario.node[126].appl 	warningReceivedSignal:count 	20
attr description  "Warning Received"
scalar FranciscoScenario.node[126].nic.phy80211p 	busyTime 	0.00048301886389937
scalar FranciscoScenario.node[126].nic.mac1609_4 	ReceivedUnicastPackets 	0
scalar FranciscoScenario.node[126].nic.mac1609_4 	ReceivedBroadcasts 	20
scalar FranciscoScenario.node[126].nic.mac1609_4 	SentPackets 	1
scalar FranciscoScenario.node[126].nic.mac1609_4 	SNIRLostPackets 	44
scalar FranciscoScenario.node[126].nic.mac1609_4 	RXTXLostPackets 	7
scalar FranciscoScenario.node[126].nic.mac1609_4 	TotalLostPackets 	51
scalar FranciscoScenario.node[126].nic.mac1609_4 	DroppedPacketsInMac 	0
scalar FranciscoScenario.node[126].nic.mac1609_4 	TooLittleTime 	0
scalar FranciscoScenario.node[126].nic.mac1609_4 	TimesIntoBackoff 	2
scalar FranciscoScenario.node[126].nic.mac1609_4 	SlotsBackoff 	7
scalar FranciscoScenario.node[126].nic.mac1609_4 	NumInternalContention 	0
scalar FranciscoScenario.node[126].nic.mac1609_4 	totalBusyTime 	0.004960756161
scalar FranciscoScenario.node[126].veinsmobility 	startTime 	2.8
scalar FranciscoScenario.node[126].veinsmobility 	totalTime 	15.9
scalar FranciscoScenario.node[126].veinsmobility 	stopTime 	18.7
scalar FranciscoScenario.node[126].veinsmobility 	minSpeed 	4.5326917421351
scalar FranciscoScenario.node[126].veinsmobility 	maxSpeed 	13.885084889128
scalar FranciscoScenario.node[126].veinsmobility 	totalDistance 	186.78952536254
scalar FranciscoScenario.node[126].veinsmobility 	totalCO2Emission 	30.558185583014
scalar FranciscoScenario.node[2].appl 	newWarningReceivedSignal:count 	1
attr description  "New Warning Received"
scalar FranciscoScenario.node[2].appl 	messageReceivedSignal:count 	14
attr description  "Message Received"
scalar FranciscoScenario.node[2].appl 	beaconReceivedSignal:count 	0
attr description  "Beacon Received"
scalar FranciscoScenario.node[2].appl 	warningReceivedSignal:count 	14
attr description  "Warning Received"
scalar FranciscoScenario.node[2].nic.phy80211p 	busyTime 	0.0001919999984
scalar FranciscoScenario.node[2].nic.mac1609_4 	ReceivedUnicastPackets 	0
scalar FranciscoScenario.node[2].nic.mac1609_4 	ReceivedBroadcasts 	14
scalar FranciscoScenario.node[2].nic.mac1609_4 	SentPackets 	1
scalar FranciscoScenario.node[2].nic.mac1609_4 	SNIRLostPackets 	14
scalar FranciscoScenario.node[2].nic.mac1609_4 	RXTXLostPackets 	0
scalar FranciscoScenario.node[2].nic.mac1609_4 	TotalLostPackets 	14
scalar FranciscoScenario.node[2].nic.mac1609_4 	DroppedPacketsInMac 	0
scalar FranciscoScenario.node[2].nic.mac1609_4 	TooLittleTime 	0
scalar FranciscoScenario.node[2].nic.mac1609_4 	TimesIntoBackoff 	2
scalar FranciscoScenario.node[2].nic.mac1609_4 	SlotsBackoff 	7
scalar FranciscoScenario.node[2].nic.mac1609_4 	NumInternalContention 	0
scalar FranciscoScenario.node[2].nic.mac1609_4 	totalBusyTime 	0.002597254751
scalar FranciscoScenario.node[2].veinsmobility 	startTime 	1.2
scalar FranciscoScenario.node[2].veinsmobility 	totalTime 	17.5
scalar FranciscoScenario.node[2].veinsmobility 	stopTime 	18.7
scalar FranciscoScenario.node[2].veinsmobility 	minSpeed 	3.2676539293748
scalar FranciscoScenario.node[2].veinsmobility 	maxSpeed 	13.886783931723
scalar FranciscoScenario.node[2].veinsmobility 	totalDistance 	199.65938961714
scalar FranciscoScenario.node[2].veinsmobility 	totalCO2Emission 	40.677689831523
scalar FranciscoScenario.node[3].appl 	newWarningReceivedSignal:count 	1
attr description  "New Warning Received"
scalar FranciscoScenario.node[3].appl 	messageReceivedSignal:count 	14
attr description  "Message Received"
scalar FranciscoScenario.node[3].appl 	beaconReceivedSignal:count 	0
attr description  "Beacon Received"
scalar FranciscoScenario.node[3].appl 	warningReceivedSignal:count 	14
attr description  "Warning Received"
scalar FranciscoScenario.node[3].nic.phy80211p 	busyTime 	0.0004388571392
scalar FranciscoScenario.node[3].nic.mac1609_4 	ReceivedUnicastPackets 	0
scalar FranciscoScenario.node[3].nic.mac1609_4 	ReceivedBroadcasts 	14
scalar FranciscoScenario.node[3].nic.mac1609_4 	SentPackets 	1
scalar FranciscoScenario.node[3].nic.mac1609_4 	SNIRLostPackets 	50
scalar FranciscoScenario.node[3].nic.mac1609_4 	RXTXLostPackets 	0
scalar FranciscoScenario.node[3].nic.mac1609_4 	TotalLostPackets 	50
scalar FranciscoScenario.node[3].nic.mac1609_4 	DroppedPacketsInMac 	0
scalar FranciscoScenario.node[3].nic.mac1609_4 	TooLittleTime 	0
scalar FranciscoScenario.node[3].nic.mac1609_4 	TimesIntoBackoff 	2
scalar FranciscoScenario.node[3].nic.mac1609_4 	SlotsBackoff 	9
scalar FranciscoScenario.node[3].nic.mac1609_4 	NumInternalContention 	0
scalar FranciscoScenario.node[3].nic.mac1609_4 	totalBusyTime 	0.004970939964
scalar FranciscoScenario.node[3].veinsmobility 	startTime 	1.2
scalar FranciscoScenario.node[3].veinsmobility 	totalTime 	17.5
scalar FranciscoScenario.node[3].veinsmobility 	stopTime 	18.7
scalar FranciscoScenario.node[3].veinsmobility 	minSpeed 	3.2066908130484
scalar FranciscoScenario.node[3].veinsmobility 	maxSpeed 	13.889781015315
scalar FranciscoScenario.node[3].veinsmobility 	totalDistance 	199.56679035996
scalar FranciscoScenario.node[3].veinsmobility 	totalCO2Emission 	39.982665408804
scalar FranciscoScenario.node[4].appl 	newWarningReceivedSignal:count 	1
attr description  "New Warning Received"
scalar FranciscoScenario.node[4].appl 	messageReceivedSignal:count 	8
attr description  "Message Received"
scalar FranciscoScenario.node[4].appl 	beaconReceivedSignal:count 	0
attr description  "Beacon Received"
scalar FranciscoScenario.node[4].appl 	warningReceivedSignal:count 	8
attr description  "Warning Received"
scalar FranciscoScenario.node[4].nic.phy80211p 	busyTime 	0.0006239999948
scalar FranciscoScenario.node[4].nic.mac1609_4 	ReceivedUnicastPackets 	0
scalar FranciscoScenario.node[4].nic.mac1609_4 	ReceivedBroadcasts 	8
scalar FranciscoScenario.node[4].nic.mac1609_4 	SentPackets 	1
scalar FranciscoScenario.node[4].nic.mac1609_4 	SNIRLostPackets 	83
scalar FranciscoScenario.node[4].nic.mac1609_4 	RXTXLostPackets 	0
scalar FranciscoScenario.node[4].nic.mac1609_4 	TotalLostPackets 	83
scalar FranciscoScenario.node[4].nic.mac1609_4 	DroppedPacketsInMac 	0
scalar FranciscoScenario.node[4].nic.mac1609_4 	TooLittleTime 	0
scalar FranciscoScenario.node[4].nic.mac1609_4 	TimesIntoBackoff 	2
scalar FranciscoScenario.node[4].nic.mac1609_4 	SlotsBackoff 	11
scalar FranciscoScenario.node[4].nic.mac1609_4 	NumInternalContention 	0
scalar FranciscoScenario.node[4].nic.mac1609_4 	totalBusyTime 	0.005998772255
scalar FranciscoScenario.node[4].veinsmobility 	startTime 	1.2
scalar FranciscoScenario.node[4].veinsmobility 	totalTime 	17.5
scalar FranciscoScenario.node[4].veinsmobility 	stopTime 	18.7
scalar FranciscoScenario.node[4].veinsmobility 	minSpeed 	13.761030399923
scalar FranciscoScenario.node[4].veinsmobility 	maxSpeed 	13.888334504713
scalar FranciscoScenario.node[4].veinsmobility 	totalDistance 	241.88419385715
scalar FranciscoScenario.node[4].veinsmobility 	totalCO2Emission 	39.648672421421
scalar FranciscoScenario.node[185].appl 	newWarningReceivedSignal:count 	1
attr description  "New Warning Received"
scalar FranciscoScenario.node[185].appl 	messageReceivedSignal:count 	19
attr description  "Message Received"
scalar FranciscoScenario.node[185].appl 	beaconReceivedSignal:count 	0
attr description  "Beacon Received"
scalar FranciscoScenario.node[185].appl 	warningReceivedSignal:count 	19
attr description  "Warning Received"
scalar FranciscoScenario.node[185].nic.phy80211p 	busyTime 	0.000325714283
scalar FranciscoScenario.node[185].nic.mac1609_4 	ReceivedUnicastPackets 	0
scalar FranciscoScenario.node[185].nic.mac1609_4 	ReceivedBroadcasts 	19
scalar FranciscoScenario.node[185].nic.mac1609_4 	SentPackets 	1
scalar FranciscoScenario.node[185].nic.mac1609_4 	SNIRLostPackets 	19
scalar FranciscoScenario.node[185].nic.mac1609_4 	RXTXLostPackets 	0
scalar FranciscoScenario.node[185].nic.mac1609_4 	TotalLostPackets 	19
scalar FranciscoScenario.node[185].nic.mac1609_4 	DroppedPacketsInMac 	0
scalar FranciscoScenario.node[185].nic.mac1609_4 	TooLittleTime 	0
scalar FranciscoScenario.node[185].nic.mac1609_4 	TimesIntoBackoff 	2
scalar FranciscoScenario.node[185].nic.mac1609_4 	SlotsBackoff 	10
scalar FranciscoScenario.node[185].nic.mac1609_4 	NumInternalContention 	0
scalar FranciscoScenario.node[185].nic.mac1609_4 	totalBusyTime 	0.003535314411
scalar FranciscoScenario.node[185].veinsmobility 	startTime 	4.7
scalar FranciscoScenario.node[185].veinsmobility 	totalTime 	14
scalar FranciscoScenario.node[185].veinsmobility 	stopTime 	18.7
scalar FranciscoScenario.node[185].veinsmobility 	minSpeed 	0.095205874708367
scalar FranciscoScenario.node[185].veinsmobility 	maxSpeed 	11.177137662116
scalar FranciscoScenario.node[185].veinsmobility 	totalDistance 	75.886090092436
scalar FranciscoScenario.node[185].veinsmobility 	totalCO2Emission 	18.372985725746
scalar FranciscoScenario.node[5].appl 	newWarningReceivedSignal:count 	1
attr description  "New Warning Received"
scalar FranciscoScenario.node[5].appl 	messageReceivedSignal:count 	18
attr description  "Message Received"
scalar FranciscoScenario.node[5].appl 	beaconReceivedSignal:count 	0
attr description  "Beacon Received"
scalar FranciscoScenario.node[5].appl 	warningReceivedSignal:count 	18
attr description  "Warning Received"
scalar FranciscoScenario.node[5].nic.phy80211p 	busyTime 	0.0004868571388
scalar FranciscoScenario.node[5].nic.mac1609_4 	ReceivedUnicastPackets 	0
scalar FranciscoScenario.node[5].nic.mac1609_4 	ReceivedBroadcasts 	18
scalar FranciscoScenario.node[5].nic.mac1609_4 	SentPackets 	1
scalar FranciscoScenario.node[5].nic.mac1609_4 	SNIRLostPackets 	53
scalar FranciscoScenario.node[5].nic.mac1609_4 	RXTXLostPackets 	0
scalar FranciscoScenario.node[5].nic.mac1609_4 	TotalLostPackets 	53
scalar FranciscoScenario.node[5].nic.mac1609_4 	DroppedPacketsInMac 	0
scalar FranciscoScenario.node[5].nic.mac1609_4 	TooLittleTime 	0
scalar FranciscoScenario.node[5].nic.mac1609_4 	TimesIntoBackoff 	2
scalar FranciscoScenario.node[5].nic.mac1609_4 	SlotsBackoff 	6
scalar FranciscoScenario.node[5].nic.mac1609_4 	NumInternalContention 	0
scalar FranciscoScenario.node[5].nic.mac1609_4 	totalBusyTime 	0.00489170511
scalar FranciscoScenario.node[5].veinsmobility 	startTime 	1.2
scalar FranciscoScenario.node[5].veinsmobility 	totalTime 	17.5
scalar FranciscoScenario.node[5].veinsmobility 	stopTime 	18.7
scalar FranciscoScenario.node[5].veinsmobility 	minSpeed 	3.3922629974026
scalar FranciscoScenario.node[5].veinsmobility 	maxSpeed 	13.877793041712
scalar FranciscoScenario.node[5].veinsmobility 	totalDistance 	168.59932222256
scalar FranciscoScenario.node[5].veinsmobility 	totalCO2Emission 	53.236871274463
scalar FranciscoScenario.node[6].appl 	newWarningReceivedSignal:count 	1
attr description  "New Warning Received"
scalar FranciscoScenario.node[6].appl 	messageReceivedSignal:count 	13
attr description  "Message Received"
scalar FranciscoScenario.node[6].appl 	beaconReceivedSignal:count 	0
attr description  "Beacon Received"
scalar FranciscoScenario.node[6].appl 	warningReceivedSignal:count 	13
attr description  "Warning Received"
scalar FranciscoScenario.node[6].nic.phy80211p 	busyTime 	0.0003565714256
scalar FranciscoScenario.node[6].nic.mac1609_4 	ReceivedUnicastPackets 	0
scalar FranciscoScenario.node[6].nic.mac1609_4 	ReceivedBroadcasts 	13
scalar FranciscoScenario.node[6].nic.mac1609_4 	SentPackets 	1
scalar FranciscoScenario.node[6].nic.mac1609_4 	SNIRLostPackets 	39
scalar FranciscoScenario.node[6].nic.mac1609_4 	RXTXLostPackets 	0
scalar FranciscoScenario.node[6].nic.mac1609_4 	TotalLostPackets 	39
scalar FranciscoScenario.node[6].nic.mac1609_4 	DroppedPacketsInMac 	0
scalar FranciscoScenario.node[6].nic.mac1609_4 	TooLittleTime 	0
scalar FranciscoScenario.node[6].nic.mac1609_4 	TimesIntoBackoff 	2
scalar FranciscoScenario.node[6].nic.mac1609_4 	SlotsBackoff 	7
scalar FranciscoScenario.node[6].nic.mac1609_4 	NumInternalContention 	0
scalar FranciscoScenario.node[6].nic.mac1609_4 	totalBusyTime 	0.004264539394
scalar FranciscoScenario.node[6].veinsmobility 	startTime 	1.2
scalar FranciscoScenario.node[6].veinsmobility 	totalTime 	17.5
scalar FranciscoScenario.node[6].veinsmobility 	stopTime 	18.7
scalar FranciscoScenario.node[6].veinsmobility 	minSpeed 	3.428358290018
scalar FranciscoScenario.node[6].veinsmobility 	maxSpeed 	13.885492528405
scalar FranciscoScenario.node[6].veinsmobility 	totalDistance 	195.73923834771
scalar FranciscoScenario.node[6].veinsmobility 	totalCO2Emission 	53.161977577003
scalar FranciscoScenario.node[7].appl 	newWarningReceivedSignal:count 	1
attr description  "New Warning Received"
scalar FranciscoScenario.node[7].appl 	messageReceivedSignal:count 	16
attr description  "Message Received"
scalar FranciscoScenario.node[7].appl 	beaconReceivedSignal:count 	0
attr description  "Beacon Received"
scalar FranciscoScenario.node[7].appl 	warningReceivedSignal:count 	16
attr description  "Warning Received"
scalar FranciscoScenario.node[7].nic.phy80211p 	busyTime 	0.00051428571
scalar FranciscoScenario.node[7].nic.mac1609_4 	ReceivedUnicastPackets 	0
scalar FranciscoScenario.node[7].nic.mac1609_4 	ReceivedBroadcasts 	16
scalar FranciscoScenario.node[7].nic.mac1609_4 	SentPackets 	1
scalar FranciscoScenario.node[7].nic.mac1609_4 	SNIRLostPackets 	59
scalar FranciscoScenario.node[7].nic.mac1609_4 	RXTXLostPackets 	0
scalar FranciscoScenario.node[7].nic.mac1609_4 	TotalLostPackets 	59
scalar FranciscoScenario.node[7].nic.mac1609_4 	DroppedPacketsInMac 	0
scalar FranciscoScenario.node[7].nic.mac1609_4 	TooLittleTime 	0
scalar FranciscoScenario.node[7].nic.mac1609_4 	TimesIntoBackoff 	2
scalar FranciscoScenario.node[7].nic.mac1609_4 	SlotsBackoff 	1
scalar FranciscoScenario.node[7].nic.mac1609_4 	NumInternalContention 	0
scalar FranciscoScenario.node[7].nic.mac1609_4 	totalBusyTime 	0.005127438266
scalar FranciscoScenario.node[7].veinsmobility 	startTime 	1.2
scalar FranciscoScenario.node[7].veinsmobility 	totalTime 	17.5
scalar FranciscoScenario.node[7].veinsmobility 	stopTime 	18.7
scalar FranciscoScenario.node[7].veinsmobility 	minSpeed 	3.4257259301941
scalar FranciscoScenario.node[7].veinsmobility 	maxSpeed 	13.889646841187
scalar FranciscoScenario.node[7].veinsmobility 	totalDistance 	203.41824905122
scalar FranciscoScenario.node[7].veinsmobility 	totalCO2Emission 	41.382498866952
scalar FranciscoScenario.node[8].appl 	newWarningReceivedSignal:count 	1
attr description  "New Warning Received"
scalar FranciscoScenario.node[8].appl 	messageReceivedSignal:count 	11
attr description  "Message Received"
scalar FranciscoScenario.node[8].appl 	beaconReceivedSignal:count 	0
attr description  "Beacon Received"
scalar FranciscoScenario.node[8].appl 	warningReceivedSignal:count 	11
attr description  "Warning Received"
scalar FranciscoScenario.node[8].nic.phy80211p 	busyTime 	0.000617142852
scalar FranciscoScenario.node[8].nic.mac1609_4 	ReceivedUnicastPackets 	0
scalar FranciscoScenario.node[8].nic.mac1609_4 	ReceivedBroadcasts 	11
scalar FranciscoScenario.node[8].nic.mac1609_4 	SentPackets 	1
scalar FranciscoScenario.node[8].nic.mac1609_4 	SNIRLostPackets 	79
scalar FranciscoScenario.node[8].nic.mac1609_4 	RXTXLostPackets 	3
scalar FranciscoScenario.node[8].nic.mac1609_4 	TotalLostPackets 	82
scalar FranciscoScenario.node[8].nic.mac1609_4 	DroppedPacketsInMac 	0
scalar FranciscoScenario.node[8].nic.mac1609_4 	TooLittleTime 	0
scalar FranciscoScenario.node[8].nic.mac1609_4 	TimesIntoBackoff 	2
scalar FranciscoScenario.node[8].nic.mac1609_4 	SlotsBackoff 	2
scalar FranciscoScenario.node[8].nic.mac1609_4 	NumInternalContention 	0
scalar FranciscoScenario.node[8].nic.mac1609_4 	totalBusyTime 	0.005838636533
scalar FranciscoScenario.node[8].veinsmobility 	startTime 	1.2
scalar FranciscoScenario.node[8].veinsmobility 	totalTime 	17.5
scalar FranciscoScenario.node[8].veinsmobility 	stopTime 	18.7
scalar FranciscoScenario.node[8].veinsmobility 	minSpeed 	3.4215363398635
scalar FranciscoScenario.node[8].veinsmobility 	maxSpeed 	13.889228442793
scalar FranciscoScenario.node[8].veinsmobility 	totalDistance 	180.533272201
scalar FranciscoScenario.node[8].veinsmobility 	totalCO2Emission 	55.256060364934
scalar FranciscoScenario.node[9].appl 	newWarningReceivedSignal:count 	1
attr description  "New Warning Received"
scalar FranciscoScenario.node[9].appl 	messageReceivedSignal:count 	19
attr description  "Message Received"
scalar FranciscoScenario.node[9].appl 	beaconReceivedSignal:count 	0
attr description  "Beacon Received"
scalar FranciscoScenario.node[9].appl 	warningReceivedSignal:count 	19
attr description  "Warning Received"
scalar FranciscoScenario.node[9].nic.phy80211p 	busyTime 	0.0003017142832
scalar FranciscoScenario.node[9].nic.mac1609_4 	ReceivedUnicastPackets 	0
scalar FranciscoScenario.node[9].nic.mac1609_4 	ReceivedBroadcasts 	19
scalar FranciscoScenario.node[9].nic.mac1609_4 	SentPackets 	1
scalar FranciscoScenario.node[9].nic.mac1609_4 	SNIRLostPackets 	25
scalar FranciscoScenario.node[9].nic.mac1609_4 	RXTXLostPackets 	0
scalar FranciscoScenario.node[9].nic.mac1609_4 	TotalLostPackets 	25
scalar FranciscoScenario.node[9].nic.mac1609_4 	DroppedPacketsInMac 	0
scalar FranciscoScenario.node[9].nic.mac1609_4 	TooLittleTime 	0
scalar FranciscoScenario.node[9].nic.mac1609_4 	TimesIntoBackoff 	1
scalar FranciscoScenario.node[9].nic.mac1609_4 	SlotsBackoff 	7
scalar FranciscoScenario.node[9].nic.mac1609_4 	NumInternalContention 	0
scalar FranciscoScenario.node[9].nic.mac1609_4 	totalBusyTime 	0.003852546864
scalar FranciscoScenario.node[9].veinsmobility 	startTime 	1.2
scalar FranciscoScenario.node[9].veinsmobility 	totalTime 	17.5
scalar FranciscoScenario.node[9].veinsmobility 	stopTime 	18.7
scalar FranciscoScenario.node[9].veinsmobility 	minSpeed 	27.651563423171
scalar FranciscoScenario.node[9].veinsmobility 	maxSpeed 	27.77965975024
scalar FranciscoScenario.node[9].veinsmobility 	totalDistance 	486.51814139606
scalar FranciscoScenario.node[9].veinsmobility 	totalCO2Emission 	82.546425139776
scalar FranciscoScenario.node[127].appl 	newWarningReceivedSignal:count 	1
attr description  "New Warning Received"
scalar FranciscoScenario.node[127].appl 	messageReceivedSignal:count 	9
attr description  "Message Received"
scalar FranciscoScenario.node[127].appl 	beaconReceivedSignal:count 	0
attr description  "Beacon Received"
scalar FranciscoScenario.node[127].appl 	warningReceivedSignal:count 	9
attr description  "Warning Received"
scalar FranciscoScenario.node[127].nic.phy80211p 	busyTime 	0.0007094339563522
scalar FranciscoScenario.node[127].nic.mac1609_4 	ReceivedUnicastPackets 	0
scalar FranciscoScenario.node[127].nic.mac1609_4 	ReceivedBroadcasts 	9
scalar FranciscoScenario.node[127].nic.mac1609_4 	SentPackets 	1
scalar FranciscoScenario.node[127].nic.mac1609_4 	SNIRLostPackets 	85
scalar FranciscoScenario.node[127].nic.mac1609_4 	RXTXLostPackets 	0
scalar FranciscoScenario.node[127].nic.mac1609_4 	TotalLostPackets 	85
scalar FranciscoScenario.node[127].nic.mac1609_4 	DroppedPacketsInMac 	0
scalar FranciscoScenario.node[127].nic.mac1609_4 	TooLittleTime 	0
scalar FranciscoScenario.node[127].nic.mac1609_4 	TimesIntoBackoff 	2
scalar FranciscoScenario.node[127].nic.mac1609_4 	SlotsBackoff 	10
scalar FranciscoScenario.node[127].nic.mac1609_4 	NumInternalContention 	0
scalar FranciscoScenario.node[127].nic.mac1609_4 	totalBusyTime 	0.005925852657
scalar FranciscoScenario.node[127].veinsmobility 	startTime 	2.8
scalar FranciscoScenario.node[127].veinsmobility 	totalTime 	15.9
scalar FranciscoScenario.node[127].veinsmobility 	stopTime 	18.7
scalar FranciscoScenario.node[127].veinsmobility 	minSpeed 	0.086315030976161
scalar FranciscoScenario.node[127].veinsmobility 	maxSpeed 	13.872557427248
scalar FranciscoScenario.node[127].veinsmobility 	totalDistance 	88.61231454595
scalar FranciscoScenario.node[127].veinsmobility 	totalCO2Emission 	22.929671868802
scalar FranciscoScenario.node[10].appl 	newWarningReceivedSignal:count 	1
attr description  "New Warning Received"
scalar FranciscoScenario.node[10].appl 	messageReceivedSignal:count 	12
attr description  "Message Received"
scalar FranciscoScenario.node[10].appl 	beaconReceivedSignal:count 	0
attr description  "Beacon Received"
scalar FranciscoScenario.node[10].appl 	warningReceivedSignal:count 	12
attr description  "Warning Received"
scalar FranciscoScenario.node[10].nic.phy80211p 	busyTime 	0.0003565714256
scalar FranciscoScenario.node[10].nic.mac1609_4 	ReceivedUnicastPackets 	0
scalar FranciscoScenario.node[10].nic.mac1609_4 	ReceivedBroadcasts 	12
scalar FranciscoScenario.node[10].nic.mac1609_4 	SentPackets 	1
scalar FranciscoScenario.node[10].nic.mac1609_4 	SNIRLostPackets 	40
scalar FranciscoScenario.node[10].nic.mac1609_4 	RXTXLostPackets 	1
scalar FranciscoScenario.node[10].nic.mac1609_4 	TotalLostPackets 	41
scalar FranciscoScenario.node[10].nic.mac1609_4 	DroppedPacketsInMac 	0
scalar FranciscoScenario.node[10].nic.mac1609_4 	TooLittleTime 	0
scalar FranciscoScenario.node[10].nic.mac1609_4 	TimesIntoBackoff 	2
scalar FranciscoScenario.node[10].nic.mac1609_4 	SlotsBackoff 	10
scalar FranciscoScenario.node[10].nic.mac1609_4 	NumInternalContention 	0
scalar FranciscoScenario.node[10].nic.mac1609_4 	totalBusyTime 	0.004038546944
scalar FranciscoScenario.node[10].veinsmobility 	startTime 	1.2
scalar FranciscoScenario.node[10].veinsmobility 	totalTime 	17.5
scalar FranciscoScenario.node[10].veinsmobility 	stopTime 	18.7
scalar FranciscoScenario.node[10].veinsmobility 	minSpeed 	0
scalar FranciscoScenario.node[10].veinsmobility 	maxSpeed 	13.858640734048
scalar FranciscoScenario.node[10].veinsmobility 	totalDistance 	136.30342979206
scalar FranciscoScenario.node[10].veinsmobility 	totalCO2Emission 	35.379656456433
scalar FranciscoScenario.node[120].appl 	newWarningReceivedSignal:count 	1
attr description  "New Warning Received"
scalar FranciscoScenario.node[120].appl 	messageReceivedSignal:count 	19
attr description  "Message Received"
scalar FranciscoScenario.node[120].appl 	beaconReceivedSignal:count 	0
attr description  "Beacon Received"
scalar FranciscoScenario.node[120].appl 	warningReceivedSignal:count 	19
attr description  "Warning Received"
scalar FranciscoScenario.node[120].nic.phy80211p 	busyTime 	0.00047560975213415
scalar FranciscoScenario.node[120].nic.mac1609_4 	ReceivedUnicastPackets 	0
scalar FranciscoScenario.node[120].nic.mac1609_4 	ReceivedBroadcasts 	19
scalar FranciscoScenario.node[120].nic.mac1609_4 	SentPackets 	1
scalar FranciscoScenario.node[120].nic.mac1609_4 	SNIRLostPackets 	46
scalar FranciscoScenario.node[120].nic.mac1609_4 	RXTXLostPackets 	1
scalar FranciscoScenario.node[120].nic.mac1609_4 	TotalLostPackets 	47
scalar FranciscoScenario.node[120].nic.mac1609_4 	DroppedPacketsInMac 	0
scalar FranciscoScenario.node[120].nic.mac1609_4 	TooLittleTime 	0
scalar FranciscoScenario.node[120].nic.mac1609_4 	TimesIntoBackoff 	1
scalar FranciscoScenario.node[120].nic.mac1609_4 	SlotsBackoff 	2
scalar FranciscoScenario.node[120].nic.mac1609_4 	NumInternalContention 	0
scalar FranciscoScenario.node[120].nic.mac1609_4 	totalBusyTime 	0.00452474287
scalar FranciscoScenario.node[120].veinsmobility 	startTime 	2.3
scalar FranciscoScenario.node[120].veinsmobility 	totalTime 	16.4
scalar FranciscoScenario.node[120].veinsmobility 	stopTime 	18.7
scalar FranciscoScenario.node[120].veinsmobility 	minSpeed 	0.0048324985290015
scalar FranciscoScenario.node[120].veinsmobility 	maxSpeed 	4.9926716748797
scalar FranciscoScenario.node[120].veinsmobility 	totalDistance 	25.632657278543
scalar FranciscoScenario.node[120].veinsmobility 	totalCO2Emission 	22.899367074932
scalar FranciscoScenario.node[121].appl 	newWarningReceivedSignal:count 	1
attr description  "New Warning Received"
scalar FranciscoScenario.node[121].appl 	messageReceivedSignal:count 	16
attr description  "Message Received"
scalar FranciscoScenario.node[121].appl 	beaconReceivedSignal:count 	0
attr description  "Beacon Received"
scalar FranciscoScenario.node[121].appl 	warningReceivedSignal:count 	16
attr description  "Warning Received"
scalar FranciscoScenario.node[121].nic.phy80211p 	busyTime 	0.00046380367711656
scalar FranciscoScenario.node[121].nic.mac1609_4 	ReceivedUnicastPackets 	0
scalar FranciscoScenario.node[121].nic.mac1609_4 	ReceivedBroadcasts 	16
scalar FranciscoScenario.node[121].nic.mac1609_4 	SentPackets 	1
scalar FranciscoScenario.node[121].nic.mac1609_4 	SNIRLostPackets 	47
scalar FranciscoScenario.node[121].nic.mac1609_4 	RXTXLostPackets 	0
scalar FranciscoScenario.node[121].nic.mac1609_4 	TotalLostPackets 	47
scalar FranciscoScenario.node[121].nic.mac1609_4 	DroppedPacketsInMac 	0
scalar FranciscoScenario.node[121].nic.mac1609_4 	TooLittleTime 	0
scalar FranciscoScenario.node[121].nic.mac1609_4 	TimesIntoBackoff 	1
scalar FranciscoScenario.node[121].nic.mac1609_4 	SlotsBackoff 	3
scalar FranciscoScenario.node[121].nic.mac1609_4 	NumInternalContention 	0
scalar FranciscoScenario.node[121].nic.mac1609_4 	totalBusyTime 	0.004402839428
scalar FranciscoScenario.node[121].veinsmobility 	startTime 	2.4
scalar FranciscoScenario.node[121].veinsmobility 	totalTime 	16.3
scalar FranciscoScenario.node[121].veinsmobility 	stopTime 	18.7
scalar FranciscoScenario.node[121].veinsmobility 	minSpeed 	0
scalar FranciscoScenario.node[121].veinsmobility 	maxSpeed 	0
scalar FranciscoScenario.node[121].veinsmobility 	totalDistance 	0
scalar FranciscoScenario.node[121].veinsmobility 	totalCO2Emission 	15.7626
scalar FranciscoScenario.node[11].appl 	newWarningReceivedSignal:count 	1
attr description  "New Warning Received"
scalar FranciscoScenario.node[11].appl 	messageReceivedSignal:count 	13
attr description  "Message Received"
scalar FranciscoScenario.node[11].appl 	beaconReceivedSignal:count 	0
attr description  "Beacon Received"
scalar FranciscoScenario.node[11].appl 	warningReceivedSignal:count 	13
attr description  "Warning Received"
scalar FranciscoScenario.node[11].nic.phy80211p 	busyTime 	0.0003977142824
scalar FranciscoScenario.node[11].nic.mac1609_4 	ReceivedUnicastPackets 	0
scalar FranciscoScenario.node[11].nic.mac1609_4 	ReceivedBroadcasts 	13
scalar FranciscoScenario.node[11].nic.mac1609_4 	SentPackets 	1
scalar FranciscoScenario.node[11].nic.mac1609_4 	SNIRLostPackets 	45
scalar FranciscoScenario.node[11].nic.mac1609_4 	RXTXLostPackets 	0
scalar FranciscoScenario.node[11].nic.mac1609_4 	TotalLostPackets 	45
scalar FranciscoScenario.node[11].nic.mac1609_4 	DroppedPacketsInMac 	0
scalar FranciscoScenario.node[11].nic.mac1609_4 	TooLittleTime 	0
scalar FranciscoScenario.node[11].nic.mac1609_4 	TimesIntoBackoff 	1
scalar FranciscoScenario.node[11].nic.mac1609_4 	SlotsBackoff 	4
scalar FranciscoScenario.node[11].nic.mac1609_4 	NumInternalContention 	0
scalar FranciscoScenario.node[11].nic.mac1609_4 	totalBusyTime 	0.004654089348
scalar FranciscoScenario.node[11].veinsmobility 	startTime 	1.2
scalar FranciscoScenario.node[11].veinsmobility 	totalTime 	17.5
scalar FranciscoScenario.node[11].veinsmobility 	stopTime 	18.7
scalar FranciscoScenario.node[11].veinsmobility 	minSpeed 	15.520727897547
scalar FranciscoScenario.node[11].veinsmobility 	maxSpeed 	15.649206943747
scalar FranciscoScenario.node[11].veinsmobility 	totalDistance 	272.69895491194
scalar FranciscoScenario.node[11].veinsmobility 	totalCO2Emission 	43.572914439453
scalar FranciscoScenario.node[128].appl 	newWarningReceivedSignal:count 	1
attr description  "New Warning Received"
scalar FranciscoScenario.node[128].appl 	messageReceivedSignal:count 	13
attr description  "Message Received"
scalar FranciscoScenario.node[128].appl 	beaconReceivedSignal:count 	0
attr description  "Beacon Received"
scalar FranciscoScenario.node[128].appl 	warningReceivedSignal:count 	13
attr description  "Warning Received"
scalar FranciscoScenario.node[128].nic.phy80211p 	busyTime 	0.00039999999666667
scalar FranciscoScenario.node[128].nic.mac1609_4 	ReceivedUnicastPackets 	0
scalar FranciscoScenario.node[128].nic.mac1609_4 	ReceivedBroadcasts 	13
scalar FranciscoScenario.node[128].nic.mac1609_4 	SentPackets 	1
scalar FranciscoScenario.node[128].nic.mac1609_4 	SNIRLostPackets 	40
scalar FranciscoScenario.node[128].nic.mac1609_4 	RXTXLostPackets 	0
scalar FranciscoScenario.node[128].nic.mac1609_4 	TotalLostPackets 	40
scalar FranciscoScenario.node[128].nic.mac1609_4 	DroppedPacketsInMac 	0
scalar FranciscoScenario.node[128].nic.mac1609_4 	TooLittleTime 	0
scalar FranciscoScenario.node[128].nic.mac1609_4 	TimesIntoBackoff 	2
scalar FranciscoScenario.node[128].nic.mac1609_4 	SlotsBackoff 	5
scalar FranciscoScenario.node[128].nic.mac1609_4 	NumInternalContention 	0
scalar FranciscoScenario.node[128].nic.mac1609_4 	totalBusyTime 	0.004342861523
scalar FranciscoScenario.node[128].veinsmobility 	startTime 	2.8
scalar FranciscoScenario.node[128].veinsmobility 	totalTime 	15.9
scalar FranciscoScenario.node[128].veinsmobility 	stopTime 	18.7
scalar FranciscoScenario.node[128].veinsmobility 	minSpeed 	15.520006634651
scalar FranciscoScenario.node[128].veinsmobility 	maxSpeed 	15.64932884224
scalar FranciscoScenario.node[128].veinsmobility 	totalDistance 	247.77706894387
scalar FranciscoScenario.node[128].veinsmobility 	totalCO2Emission 	40.851792283217
scalar FranciscoScenario.node[12].appl 	newWarningReceivedSignal:count 	1
attr description  "New Warning Received"
scalar FranciscoScenario.node[12].appl 	messageReceivedSignal:count 	3
attr description  "Message Received"
scalar FranciscoScenario.node[12].appl 	beaconReceivedSignal:count 	0
attr description  "Beacon Received"
scalar FranciscoScenario.node[12].appl 	warningReceivedSignal:count 	3
attr description  "Warning Received"
scalar FranciscoScenario.node[12].nic.phy80211p 	busyTime 	0.0005965714236
scalar FranciscoScenario.node[12].nic.mac1609_4 	ReceivedUnicastPackets 	0
scalar FranciscoScenario.node[12].nic.mac1609_4 	ReceivedBroadcasts 	3
scalar FranciscoScenario.node[12].nic.mac1609_4 	SentPackets 	1
scalar FranciscoScenario.node[12].nic.mac1609_4 	SNIRLostPackets 	84
scalar FranciscoScenario.node[12].nic.mac1609_4 	RXTXLostPackets 	0
scalar FranciscoScenario.node[12].nic.mac1609_4 	TotalLostPackets 	84
scalar FranciscoScenario.node[12].nic.mac1609_4 	DroppedPacketsInMac 	0
scalar FranciscoScenario.node[12].nic.mac1609_4 	TooLittleTime 	0
scalar FranciscoScenario.node[12].nic.mac1609_4 	TimesIntoBackoff 	1
scalar FranciscoScenario.node[12].nic.mac1609_4 	SlotsBackoff 	3
scalar FranciscoScenario.node[12].nic.mac1609_4 	NumInternalContention 	0
scalar FranciscoScenario.node[12].nic.mac1609_4 	totalBusyTime 	0.005644070398
scalar FranciscoScenario.node[12].veinsmobility 	startTime 	1.2
scalar FranciscoScenario.node[12].veinsmobility 	totalTime 	17.5
scalar FranciscoScenario.node[12].veinsmobility 	stopTime 	18.7
scalar FranciscoScenario.node[12].veinsmobility 	minSpeed 	3.3625502128957
scalar FranciscoScenario.node[12].veinsmobility 	maxSpeed 	13.88904177139
scalar FranciscoScenario.node[12].veinsmobility 	totalDistance 	198.65615711182
scalar FranciscoScenario.node[12].veinsmobility 	totalCO2Emission 	37.861280634842
scalar FranciscoScenario.node[13].appl 	newWarningReceivedSignal:count 	1
attr description  "New Warning Received"
scalar FranciscoScenario.node[13].appl 	messageReceivedSignal:count 	14
attr description  "Message Received"
scalar FranciscoScenario.node[13].appl 	beaconReceivedSignal:count 	0
attr description  "Beacon Received"
scalar FranciscoScenario.node[13].appl 	warningReceivedSignal:count 	14
attr description  "Warning Received"
scalar FranciscoScenario.node[13].nic.phy80211p 	busyTime 	0.0003154285688
scalar FranciscoScenario.node[13].nic.mac1609_4 	ReceivedUnicastPackets 	0
scalar FranciscoScenario.node[13].nic.mac1609_4 	ReceivedBroadcasts 	14
scalar FranciscoScenario.node[13].nic.mac1609_4 	SentPackets 	1
scalar FranciscoScenario.node[13].nic.mac1609_4 	SNIRLostPackets 	32
scalar FranciscoScenario.node[13].nic.mac1609_4 	RXTXLostPackets 	0
scalar FranciscoScenario.node[13].nic.mac1609_4 	TotalLostPackets 	32
scalar FranciscoScenario.node[13].nic.mac1609_4 	DroppedPacketsInMac 	0
scalar FranciscoScenario.node[13].nic.mac1609_4 	TooLittleTime 	0
scalar FranciscoScenario.node[13].nic.mac1609_4 	TimesIntoBackoff 	1
scalar FranciscoScenario.node[13].nic.mac1609_4 	SlotsBackoff 	7
scalar FranciscoScenario.node[13].nic.mac1609_4 	NumInternalContention 	0
scalar FranciscoScenario.node[13].nic.mac1609_4 	totalBusyTime 	0.003889685022
scalar FranciscoScenario.node[13].veinsmobility 	startTime 	1.2
scalar FranciscoScenario.node[13].veinsmobility 	totalTime 	17.5
scalar FranciscoScenario.node[13].veinsmobility 	stopTime 	18.7
scalar FranciscoScenario.node[13].veinsmobility 	minSpeed 	3.3284897982847
scalar FranciscoScenario.node[13].veinsmobility 	maxSpeed 	13.889309693503
scalar FranciscoScenario.node[13].veinsmobility 	totalDistance 	195.74174660103
scalar FranciscoScenario.node[13].veinsmobility 	totalCO2Emission 	53.437828733659
scalar FranciscoScenario.node[14].appl 	newWarningReceivedSignal:count 	1
attr description  "New Warning Received"
scalar FranciscoScenario.node[14].appl 	messageReceivedSignal:count 	20
attr description  "Message Received"
scalar FranciscoScenario.node[14].appl 	beaconReceivedSignal:count 	0
attr description  "Beacon Received"
scalar FranciscoScenario.node[14].appl 	warningReceivedSignal:count 	20
attr description  "Warning Received"
scalar FranciscoScenario.node[14].nic.phy80211p 	busyTime 	0.0002674285692
scalar FranciscoScenario.node[14].nic.mac1609_4 	ReceivedUnicastPackets 	0
scalar FranciscoScenario.node[14].nic.mac1609_4 	ReceivedBroadcasts 	20
scalar FranciscoScenario.node[14].nic.mac1609_4 	SentPackets 	1
scalar FranciscoScenario.node[14].nic.mac1609_4 	SNIRLostPackets 	19
scalar FranciscoScenario.node[14].nic.mac1609_4 	RXTXLostPackets 	0
scalar FranciscoScenario.node[14].nic.mac1609_4 	TotalLostPackets 	19
scalar FranciscoScenario.node[14].nic.mac1609_4 	DroppedPacketsInMac 	0
scalar FranciscoScenario.node[14].nic.mac1609_4 	TooLittleTime 	0
scalar FranciscoScenario.node[14].nic.mac1609_4 	TimesIntoBackoff 	1
scalar FranciscoScenario.node[14].nic.mac1609_4 	SlotsBackoff 	4
scalar FranciscoScenario.node[14].nic.mac1609_4 	NumInternalContention 	0
scalar FranciscoScenario.node[14].nic.mac1609_4 	totalBusyTime 	0.003886847989
scalar FranciscoScenario.node[14].veinsmobility 	startTime 	1.2
scalar FranciscoScenario.node[14].veinsmobility 	totalTime 	17.5
scalar FranciscoScenario.node[14].veinsmobility 	stopTime 	18.7
scalar FranciscoScenario.node[14].veinsmobility 	minSpeed 	6.8273566252889
scalar FranciscoScenario.node[14].veinsmobility 	maxSpeed 	27.77780668217
scalar FranciscoScenario.node[14].veinsmobility 	totalDistance 	351.57472324596
scalar FranciscoScenario.node[14].veinsmobility 	totalCO2Emission 	67.499647748149
scalar FranciscoScenario.node[15].appl 	newWarningReceivedSignal:count 	1
attr description  "New Warning Received"
scalar FranciscoScenario.node[15].appl 	messageReceivedSignal:count 	11
attr description  "Message Received"
scalar FranciscoScenario.node[15].appl 	beaconReceivedSignal:count 	0
attr description  "Beacon Received"
scalar FranciscoScenario.node[15].appl 	warningReceivedSignal:count 	11
attr description  "Warning Received"
scalar FranciscoScenario.node[15].nic.phy80211p 	busyTime 	8.91428564e-05
scalar FranciscoScenario.node[15].nic.mac1609_4 	ReceivedUnicastPackets 	0
scalar FranciscoScenario.node[15].nic.mac1609_4 	ReceivedBroadcasts 	11
scalar FranciscoScenario.node[15].nic.mac1609_4 	SentPackets 	1
scalar FranciscoScenario.node[15].nic.mac1609_4 	SNIRLostPackets 	2
scalar FranciscoScenario.node[15].nic.mac1609_4 	RXTXLostPackets 	0
scalar FranciscoScenario.node[15].nic.mac1609_4 	TotalLostPackets 	2
scalar FranciscoScenario.node[15].nic.mac1609_4 	DroppedPacketsInMac 	0
scalar FranciscoScenario.node[15].nic.mac1609_4 	TooLittleTime 	0
scalar FranciscoScenario.node[15].nic.mac1609_4 	TimesIntoBackoff 	1
scalar FranciscoScenario.node[15].nic.mac1609_4 	SlotsBackoff 	3
scalar FranciscoScenario.node[15].nic.mac1609_4 	NumInternalContention 	0
scalar FranciscoScenario.node[15].nic.mac1609_4 	totalBusyTime 	0.001561264551
scalar FranciscoScenario.node[15].veinsmobility 	startTime 	1.2
scalar FranciscoScenario.node[15].veinsmobility 	totalTime 	17.5
scalar FranciscoScenario.node[15].veinsmobility 	stopTime 	18.7
scalar FranciscoScenario.node[15].veinsmobility 	minSpeed 	27.651158400744
scalar FranciscoScenario.node[15].veinsmobility 	maxSpeed 	27.779699752952
scalar FranciscoScenario.node[15].veinsmobility 	totalDistance 	485.01205212458
scalar FranciscoScenario.node[15].veinsmobility 	totalCO2Emission 	80.241198416087
scalar FranciscoScenario.node[16].appl 	newWarningReceivedSignal:count 	1
attr description  "New Warning Received"
scalar FranciscoScenario.node[16].appl 	messageReceivedSignal:count 	20
attr description  "Message Received"
scalar FranciscoScenario.node[16].appl 	beaconReceivedSignal:count 	0
attr description  "Beacon Received"
scalar FranciscoScenario.node[16].appl 	warningReceivedSignal:count 	20
attr description  "Warning Received"
scalar FranciscoScenario.node[16].nic.phy80211p 	busyTime 	0.0004319999964
scalar FranciscoScenario.node[16].nic.mac1609_4 	ReceivedUnicastPackets 	0
scalar FranciscoScenario.node[16].nic.mac1609_4 	ReceivedBroadcasts 	20
scalar FranciscoScenario.node[16].nic.mac1609_4 	SentPackets 	1
scalar FranciscoScenario.node[16].nic.mac1609_4 	SNIRLostPackets 	43
scalar FranciscoScenario.node[16].nic.mac1609_4 	RXTXLostPackets 	1
scalar FranciscoScenario.node[16].nic.mac1609_4 	TotalLostPackets 	44
scalar FranciscoScenario.node[16].nic.mac1609_4 	DroppedPacketsInMac 	0
scalar FranciscoScenario.node[16].nic.mac1609_4 	TooLittleTime 	0
scalar FranciscoScenario.node[16].nic.mac1609_4 	TimesIntoBackoff 	2
scalar FranciscoScenario.node[16].nic.mac1609_4 	SlotsBackoff 	2
scalar FranciscoScenario.node[16].nic.mac1609_4 	NumInternalContention 	0
scalar FranciscoScenario.node[16].nic.mac1609_4 	totalBusyTime 	0.004657983541
scalar FranciscoScenario.node[16].veinsmobility 	startTime 	1.2
[...]
scalar FranciscoScenario.node[155].nic.mac1609_4 	SlotsBackoff 	8
scalar FranciscoScenario.node[155].nic.mac1609_4 	NumInternalContention 	0
scalar FranciscoScenario.node[155].nic.mac1609_4 	totalBusyTime 	0.003646018071
scalar FranciscoScenario.node[155].veinsmobility 	startTime 	2.8
scalar FranciscoScenario.node[155].veinsmobility 	totalTime 	15.9
scalar FranciscoScenario.node[155].veinsmobility 	stopTime 	18.7
scalar FranciscoScenario.node[155].veinsmobility 	minSpeed 	3.2067057702344
scalar FranciscoScenario.node[155].veinsmobility 	maxSpeed 	13.887887137013
scalar FranciscoScenario.node[155].veinsmobility 	totalDistance 	142.72323216406
scalar FranciscoScenario.node[155].veinsmobility 	totalCO2Emission 	45.326953750632
scalar FranciscoScenario.node[110].appl 	newWarningReceivedSignal:count 	1
attr description  "New Warning Received"
scalar FranciscoScenario.node[110].appl 	messageReceivedSignal:count 	10
attr description  "Message Received"
scalar FranciscoScenario.node[110].appl 	beaconReceivedSignal:count 	0
attr description  "Beacon Received"
scalar FranciscoScenario.node[110].appl 	warningReceivedSignal:count 	10
attr description  "Warning Received"
scalar FranciscoScenario.node[110].nic.phy80211p 	busyTime 	0.0005554285668
scalar FranciscoScenario.node[110].nic.mac1609_4 	ReceivedUnicastPackets 	0
scalar FranciscoScenario.node[110].nic.mac1609_4 	ReceivedBroadcasts 	10
scalar FranciscoScenario.node[110].nic.mac1609_4 	SentPackets 	1
scalar FranciscoScenario.node[110].nic.mac1609_4 	SNIRLostPackets 	71
scalar FranciscoScenario.node[110].nic.mac1609_4 	RXTXLostPackets 	1
scalar FranciscoScenario.node[110].nic.mac1609_4 	TotalLostPackets 	72
scalar FranciscoScenario.node[110].nic.mac1609_4 	DroppedPacketsInMac 	0
scalar FranciscoScenario.node[110].nic.mac1609_4 	TooLittleTime 	0
scalar FranciscoScenario.node[110].nic.mac1609_4 	TimesIntoBackoff 	2
scalar FranciscoScenario.node[110].nic.mac1609_4 	SlotsBackoff 	5
scalar FranciscoScenario.node[110].nic.mac1609_4 	NumInternalContention 	0
scalar FranciscoScenario.node[110].nic.mac1609_4 	totalBusyTime 	0.005309822535
scalar FranciscoScenario.node[110].veinsmobility 	startTime 	1.2
scalar FranciscoScenario.node[110].veinsmobility 	totalTime 	17.5
scalar FranciscoScenario.node[110].veinsmobility 	stopTime 	18.7
scalar FranciscoScenario.node[110].veinsmobility 	minSpeed 	3.4428777250433
scalar FranciscoScenario.node[110].veinsmobility 	maxSpeed 	13.888893493533
scalar FranciscoScenario.node[110].veinsmobility 	totalDistance 	156.40011055416
scalar FranciscoScenario.node[110].veinsmobility 	totalCO2Emission 	54.550682184926
scalar FranciscoScenario.node[111].appl 	newWarningReceivedSignal:count 	1
attr description  "New Warning Received"
scalar FranciscoScenario.node[111].appl 	messageReceivedSignal:count 	11
attr description  "Message Received"
scalar FranciscoScenario.node[111].appl 	beaconReceivedSignal:count 	0
attr description  "Beacon Received"
scalar FranciscoScenario.node[111].appl 	warningReceivedSignal:count 	11
attr description  "Warning Received"
scalar FranciscoScenario.node[111].nic.phy80211p 	busyTime 	0.0005074285672
scalar FranciscoScenario.node[111].nic.mac1609_4 	ReceivedUnicastPackets 	0
scalar FranciscoScenario.node[111].nic.mac1609_4 	ReceivedBroadcasts 	11
scalar FranciscoScenario.node[111].nic.mac1609_4 	SentPackets 	1
scalar FranciscoScenario.node[111].nic.mac1609_4 	SNIRLostPackets 	63
scalar FranciscoScenario.node[111].nic.mac1609_4 	RXTXLostPackets 	4
scalar FranciscoScenario.node[111].nic.mac1609_4 	TotalLostPackets 	67
scalar FranciscoScenario.node[111].nic.mac1609_4 	DroppedPacketsInMac 	0
scalar FranciscoScenario.node[111].nic.mac1609_4 	TooLittleTime 	0
scalar FranciscoScenario.node[111].nic.mac1609_4 	TimesIntoBackoff 	2
scalar FranciscoScenario.node[111].nic.mac1609_4 	SlotsBackoff 	3
scalar FranciscoScenario.node[111].nic.mac1609_4 	NumInternalContention 	0
scalar FranciscoScenario.node[111].nic.mac1609_4 	totalBusyTime 	0.005103133573
scalar FranciscoScenario.node[111].veinsmobility 	startTime 	1.2
scalar FranciscoScenario.node[111].veinsmobility 	totalTime 	17.5
scalar FranciscoScenario.node[111].veinsmobility 	stopTime 	18.7
scalar FranciscoScenario.node[111].veinsmobility 	minSpeed 	3.4694177044734
scalar FranciscoScenario.node[111].veinsmobility 	maxSpeed 	13.889741218607
scalar FranciscoScenario.node[111].veinsmobility 	totalDistance 	218.62408429997
scalar FranciscoScenario.node[111].veinsmobility 	totalCO2Emission 	34.577332380794
scalar FranciscoScenario.node[112].appl 	newWarningReceivedSignal:count 	1
attr description  "New Warning Received"
scalar FranciscoScenario.node[112].appl 	messageReceivedSignal:count 	13
attr description  "Message Received"
scalar FranciscoScenario.node[112].appl 	beaconReceivedSignal:count 	0
attr description  "Beacon Received"
scalar FranciscoScenario.node[112].appl 	warningReceivedSignal:count 	13
attr description  "Warning Received"
scalar FranciscoScenario.node[112].nic.phy80211p 	busyTime 	0.0004868571388
scalar FranciscoScenario.node[112].nic.mac1609_4 	ReceivedUnicastPackets 	0
scalar FranciscoScenario.node[112].nic.mac1609_4 	ReceivedBroadcasts 	13
scalar FranciscoScenario.node[112].nic.mac1609_4 	SentPackets 	1
scalar FranciscoScenario.node[112].nic.mac1609_4 	SNIRLostPackets 	58
scalar FranciscoScenario.node[112].nic.mac1609_4 	RXTXLostPackets 	0
scalar FranciscoScenario.node[112].nic.mac1609_4 	TotalLostPackets 	58
scalar FranciscoScenario.node[112].nic.mac1609_4 	DroppedPacketsInMac 	0
scalar FranciscoScenario.node[112].nic.mac1609_4 	TooLittleTime 	0
scalar FranciscoScenario.node[112].nic.mac1609_4 	TimesIntoBackoff 	2
scalar FranciscoScenario.node[112].nic.mac1609_4 	SlotsBackoff 	5
scalar FranciscoScenario.node[112].nic.mac1609_4 	NumInternalContention 	0
scalar FranciscoScenario.node[112].nic.mac1609_4 	totalBusyTime 	0.004822909351
scalar FranciscoScenario.node[112].veinsmobility 	startTime 	1.2
scalar FranciscoScenario.node[112].veinsmobility 	totalTime 	17.5
scalar FranciscoScenario.node[112].veinsmobility 	stopTime 	18.7
scalar FranciscoScenario.node[112].veinsmobility 	minSpeed 	0.34652639526108
scalar FranciscoScenario.node[112].veinsmobility 	maxSpeed 	13.889533112932
scalar FranciscoScenario.node[112].veinsmobility 	totalDistance 	186.05647688747
scalar FranciscoScenario.node[112].veinsmobility 	totalCO2Emission 	31.683899473186
scalar FranciscoScenario.node[156].appl 	newWarningReceivedSignal:count 	1
attr description  "New Warning Received"
scalar FranciscoScenario.node[156].appl 	messageReceivedSignal:count 	12
attr description  "Message Received"
scalar FranciscoScenario.node[156].appl 	beaconReceivedSignal:count 	0
attr description  "Beacon Received"
scalar FranciscoScenario.node[156].appl 	warningReceivedSignal:count 	12
attr description  "Warning Received"
scalar FranciscoScenario.node[156].nic.phy80211p 	busyTime 	0.00054339622188679
scalar FranciscoScenario.node[156].nic.mac1609_4 	ReceivedUnicastPackets 	0
scalar FranciscoScenario.node[156].nic.mac1609_4 	ReceivedBroadcasts 	12
scalar FranciscoScenario.node[156].nic.mac1609_4 	SentPackets 	1
scalar FranciscoScenario.node[156].nic.mac1609_4 	SNIRLostPackets 	60
scalar FranciscoScenario.node[156].nic.mac1609_4 	RXTXLostPackets 	3
scalar FranciscoScenario.node[156].nic.mac1609_4 	TotalLostPackets 	63
scalar FranciscoScenario.node[156].nic.mac1609_4 	DroppedPacketsInMac 	0
scalar FranciscoScenario.node[156].nic.mac1609_4 	TooLittleTime 	0
scalar FranciscoScenario.node[156].nic.mac1609_4 	TimesIntoBackoff 	1
scalar FranciscoScenario.node[156].nic.mac1609_4 	SlotsBackoff 	1
scalar FranciscoScenario.node[156].nic.mac1609_4 	NumInternalContention 	0
scalar FranciscoScenario.node[156].nic.mac1609_4 	totalBusyTime 	0.005014453073
scalar FranciscoScenario.node[156].veinsmobility 	startTime 	2.8
scalar FranciscoScenario.node[156].veinsmobility 	totalTime 	15.9
scalar FranciscoScenario.node[156].veinsmobility 	stopTime 	18.7
scalar FranciscoScenario.node[156].veinsmobility 	minSpeed 	1.7963531272359
scalar FranciscoScenario.node[156].veinsmobility 	maxSpeed 	13.887530912145
scalar FranciscoScenario.node[156].veinsmobility 	totalDistance 	176.52352578696
scalar FranciscoScenario.node[156].veinsmobility 	totalCO2Emission 	28.574573552025
scalar FranciscoScenario.node[113].appl 	newWarningReceivedSignal:count 	1
attr description  "New Warning Received"
scalar FranciscoScenario.node[113].appl 	messageReceivedSignal:count 	11
attr description  "Message Received"
scalar FranciscoScenario.node[113].appl 	beaconReceivedSignal:count 	0
attr description  "Beacon Received"
scalar FranciscoScenario.node[113].appl 	warningReceivedSignal:count 	11
attr description  "Warning Received"
scalar FranciscoScenario.node[113].nic.phy80211p 	busyTime 	0.0002605714264
scalar FranciscoScenario.node[113].nic.mac1609_4 	ReceivedUnicastPackets 	0
scalar FranciscoScenario.node[113].nic.mac1609_4 	ReceivedBroadcasts 	11
scalar FranciscoScenario.node[113].nic.mac1609_4 	SentPackets 	1
scalar FranciscoScenario.node[113].nic.mac1609_4 	SNIRLostPackets 	27
scalar FranciscoScenario.node[113].nic.mac1609_4 	RXTXLostPackets 	0
scalar FranciscoScenario.node[113].nic.mac1609_4 	TotalLostPackets 	27
scalar FranciscoScenario.node[113].nic.mac1609_4 	DroppedPacketsInMac 	0
scalar FranciscoScenario.node[113].nic.mac1609_4 	TooLittleTime 	0
scalar FranciscoScenario.node[113].nic.mac1609_4 	TimesIntoBackoff 	2
scalar FranciscoScenario.node[113].nic.mac1609_4 	SlotsBackoff 	10
scalar FranciscoScenario.node[113].nic.mac1609_4 	NumInternalContention 	0
scalar FranciscoScenario.node[113].nic.mac1609_4 	totalBusyTime 	0.003517477595
scalar FranciscoScenario.node[113].veinsmobility 	startTime 	1.2
scalar FranciscoScenario.node[113].veinsmobility 	totalTime 	17.5
scalar FranciscoScenario.node[113].veinsmobility 	stopTime 	18.7
scalar FranciscoScenario.node[113].veinsmobility 	minSpeed 	3.3319670625733
scalar FranciscoScenario.node[113].veinsmobility 	maxSpeed 	13.889820163865
scalar FranciscoScenario.node[113].veinsmobility 	totalDistance 	168.52904279284
scalar FranciscoScenario.node[113].veinsmobility 	totalCO2Emission 	50.977930948205
scalar FranciscoScenario.node[157].appl 	newWarningReceivedSignal:count 	1
attr description  "New Warning Received"
scalar FranciscoScenario.node[157].appl 	messageReceivedSignal:count 	11
attr description  "Message Received"
scalar FranciscoScenario.node[157].appl 	beaconReceivedSignal:count 	0
attr description  "Beacon Received"
scalar FranciscoScenario.node[157].appl 	warningReceivedSignal:count 	11
attr description  "Warning Received"
scalar FranciscoScenario.node[157].nic.phy80211p 	busyTime 	0.0002716981109434
scalar FranciscoScenario.node[157].nic.mac1609_4 	ReceivedUnicastPackets 	0
scalar FranciscoScenario.node[157].nic.mac1609_4 	ReceivedBroadcasts 	11
scalar FranciscoScenario.node[157].nic.mac1609_4 	SentPackets 	1
scalar FranciscoScenario.node[157].nic.mac1609_4 	SNIRLostPackets 	25
scalar FranciscoScenario.node[157].nic.mac1609_4 	RXTXLostPackets 	0
scalar FranciscoScenario.node[157].nic.mac1609_4 	TotalLostPackets 	25
scalar FranciscoScenario.node[157].nic.mac1609_4 	DroppedPacketsInMac 	0
scalar FranciscoScenario.node[157].nic.mac1609_4 	TooLittleTime 	0
scalar FranciscoScenario.node[157].nic.mac1609_4 	TimesIntoBackoff 	2
scalar FranciscoScenario.node[157].nic.mac1609_4 	SlotsBackoff 	10
scalar FranciscoScenario.node[157].nic.mac1609_4 	NumInternalContention 	0
scalar FranciscoScenario.node[157].nic.mac1609_4 	totalBusyTime 	0.003357445748
scalar FranciscoScenario.node[157].veinsmobility 	startTime 	2.8
scalar FranciscoScenario.node[157].veinsmobility 	totalTime 	15.9
scalar FranciscoScenario.node[157].veinsmobility 	stopTime 	18.7
scalar FranciscoScenario.node[157].veinsmobility 	minSpeed 	3.2938182908547
scalar FranciscoScenario.node[157].veinsmobility 	maxSpeed 	13.879056849407
scalar FranciscoScenario.node[157].veinsmobility 	totalDistance 	147.54676646402
scalar FranciscoScenario.node[157].veinsmobility 	totalCO2Emission 	45.506244191238
scalar FranciscoScenario.node[114].appl 	newWarningReceivedSignal:count 	1
attr description  "New Warning Received"
scalar FranciscoScenario.node[114].appl 	messageReceivedSignal:count 	15
attr description  "Message Received"
scalar FranciscoScenario.node[114].appl 	beaconReceivedSignal:count 	0
attr description  "Beacon Received"
scalar FranciscoScenario.node[114].appl 	warningReceivedSignal:count 	15
attr description  "Warning Received"
scalar FranciscoScenario.node[114].nic.phy80211p 	busyTime 	0.00017142857
scalar FranciscoScenario.node[114].nic.mac1609_4 	ReceivedUnicastPackets 	0
scalar FranciscoScenario.node[114].nic.mac1609_4 	ReceivedBroadcasts 	15
scalar FranciscoScenario.node[114].nic.mac1609_4 	SentPackets 	1
scalar FranciscoScenario.node[114].nic.mac1609_4 	SNIRLostPackets 	10
scalar FranciscoScenario.node[114].nic.mac1609_4 	RXTXLostPackets 	0
scalar FranciscoScenario.node[114].nic.mac1609_4 	TotalLostPackets 	10
scalar FranciscoScenario.node[114].nic.mac1609_4 	DroppedPacketsInMac 	0
scalar FranciscoScenario.node[114].nic.mac1609_4 	TooLittleTime 	0
scalar FranciscoScenario.node[114].nic.mac1609_4 	TimesIntoBackoff 	1
scalar FranciscoScenario.node[114].nic.mac1609_4 	SlotsBackoff 	4
scalar FranciscoScenario.node[114].nic.mac1609_4 	NumInternalContention 	0
scalar FranciscoScenario.node[114].nic.mac1609_4 	totalBusyTime 	0.002416836037
scalar FranciscoScenario.node[114].veinsmobility 	startTime 	1.2
scalar FranciscoScenario.node[114].veinsmobility 	totalTime 	17.5
scalar FranciscoScenario.node[114].veinsmobility 	stopTime 	18.7
scalar FranciscoScenario.node[114].veinsmobility 	minSpeed 	11.055724972212
scalar FranciscoScenario.node[114].veinsmobility 	maxSpeed 	13.887173091911
scalar FranciscoScenario.node[114].veinsmobility 	totalDistance 	220.40787174172
scalar FranciscoScenario.node[114].veinsmobility 	totalCO2Emission 	46.549162611056
scalar FranciscoScenario.node[207].appl 	newWarningReceivedSignal:count 	0
attr description  "New Warning Received"
scalar FranciscoScenario.node[207].appl 	messageReceivedSignal:count 	0
attr description  "Message Received"
scalar FranciscoScenario.node[207].appl 	beaconReceivedSignal:count 	0
attr description  "Beacon Received"
scalar FranciscoScenario.node[207].appl 	warningReceivedSignal:count 	0
attr description  "Warning Received"
scalar FranciscoScenario.node[207].nic.phy80211p 	busyTime 	0
scalar FranciscoScenario.node[207].nic.mac1609_4 	ReceivedUnicastPackets 	0
scalar FranciscoScenario.node[207].nic.mac1609_4 	ReceivedBroadcasts 	0
scalar FranciscoScenario.node[207].nic.mac1609_4 	SentPackets 	0
scalar FranciscoScenario.node[207].nic.mac1609_4 	SNIRLostPackets 	0
scalar FranciscoScenario.node[207].nic.mac1609_4 	RXTXLostPackets 	0
scalar FranciscoScenario.node[207].nic.mac1609_4 	TotalLostPackets 	0
scalar FranciscoScenario.node[207].nic.mac1609_4 	DroppedPacketsInMac 	0
scalar FranciscoScenario.node[207].nic.mac1609_4 	TooLittleTime 	0
scalar FranciscoScenario.node[207].nic.mac1609_4 	TimesIntoBackoff 	0
scalar FranciscoScenario.node[207].nic.mac1609_4 	SlotsBackoff 	0
scalar FranciscoScenario.node[207].nic.mac1609_4 	NumInternalContention 	0
scalar FranciscoScenario.node[207].nic.mac1609_4 	totalBusyTime 	0
scalar FranciscoScenario.node[207].veinsmobility 	startTime 	12.1
scalar FranciscoScenario.node[207].veinsmobility 	totalTime 	6.6
scalar FranciscoScenario.node[207].veinsmobility 	stopTime 	18.7
scalar FranciscoScenario.node[207].veinsmobility 	minSpeed 	3.2466526418249
scalar FranciscoScenario.node[207].veinsmobility 	maxSpeed 	11.395094663739
scalar FranciscoScenario.node[207].veinsmobility 	totalDistance 	44.173740675429
scalar FranciscoScenario.node[207].veinsmobility 	totalCO2Emission 	19.626954694093
scalar FranciscoScenario.node[212].appl 	newWarningReceivedSignal:count 	0
attr description  "New Warning Received"
scalar FranciscoScenario.node[212].appl 	messageReceivedSignal:count 	0
attr description  "Message Received"
scalar FranciscoScenario.node[212].appl 	beaconReceivedSignal:count 	0
attr description  "Beacon Received"
scalar FranciscoScenario.node[212].appl 	warningReceivedSignal:count 	0
attr description  "Warning Received"
scalar FranciscoScenario.node[212].nic.phy80211p 	busyTime 	0
scalar FranciscoScenario.node[212].nic.mac1609_4 	ReceivedUnicastPackets 	0
scalar FranciscoScenario.node[212].nic.mac1609_4 	ReceivedBroadcasts 	0
scalar FranciscoScenario.node[212].nic.mac1609_4 	SentPackets 	0
scalar FranciscoScenario.node[212].nic.mac1609_4 	SNIRLostPackets 	0
scalar FranciscoScenario.node[212].nic.mac1609_4 	RXTXLostPackets 	0
scalar FranciscoScenario.node[212].nic.mac1609_4 	TotalLostPackets 	0
scalar FranciscoScenario.node[212].nic.mac1609_4 	DroppedPacketsInMac 	0
scalar FranciscoScenario.node[212].nic.mac1609_4 	TooLittleTime 	0
scalar FranciscoScenario.node[212].nic.mac1609_4 	TimesIntoBackoff 	0
scalar FranciscoScenario.node[212].nic.mac1609_4 	SlotsBackoff 	0
scalar FranciscoScenario.node[212].nic.mac1609_4 	NumInternalContention 	0
scalar FranciscoScenario.node[212].nic.mac1609_4 	totalBusyTime 	0
scalar FranciscoScenario.node[212].veinsmobility 	startTime 	16.3
scalar FranciscoScenario.node[212].veinsmobility 	totalTime 	2.4
scalar FranciscoScenario.node[212].veinsmobility 	stopTime 	18.7
scalar FranciscoScenario.node[212].veinsmobility 	minSpeed 	4.7323997702142
scalar FranciscoScenario.node[212].veinsmobility 	maxSpeed 	10.999714285714
scalar FranciscoScenario.node[212].veinsmobility 	totalDistance 	18.738306603155
scalar FranciscoScenario.node[212].veinsmobility 	totalCO2Emission 	2.2379
scalar FranciscoScenario.node[115].appl 	newWarningReceivedSignal:count 	1
attr description  "New Warning Received"
scalar FranciscoScenario.node[115].appl 	messageReceivedSignal:count 	18
attr description  "Message Received"
scalar FranciscoScenario.node[115].appl 	beaconReceivedSignal:count 	0
attr description  "Beacon Received"
scalar FranciscoScenario.node[115].appl 	warningReceivedSignal:count 	18
attr description  "Warning Received"
scalar FranciscoScenario.node[115].nic.phy80211p 	busyTime 	0.0004868571388
scalar FranciscoScenario.node[115].nic.mac1609_4 	ReceivedUnicastPackets 	0
scalar FranciscoScenario.node[115].nic.mac1609_4 	ReceivedBroadcasts 	18
scalar FranciscoScenario.node[115].nic.mac1609_4 	SentPackets 	1
scalar FranciscoScenario.node[115].nic.mac1609_4 	SNIRLostPackets 	53
scalar FranciscoScenario.node[115].nic.mac1609_4 	RXTXLostPackets 	2
scalar FranciscoScenario.node[115].nic.mac1609_4 	TotalLostPackets 	55
scalar FranciscoScenario.node[115].nic.mac1609_4 	DroppedPacketsInMac 	0
scalar FranciscoScenario.node[115].nic.mac1609_4 	TooLittleTime 	0
scalar FranciscoScenario.node[115].nic.mac1609_4 	TimesIntoBackoff 	2
scalar FranciscoScenario.node[115].nic.mac1609_4 	SlotsBackoff 	1
scalar FranciscoScenario.node[115].nic.mac1609_4 	NumInternalContention 	0
scalar FranciscoScenario.node[115].nic.mac1609_4 	totalBusyTime 	0.00502645658
scalar FranciscoScenario.node[115].veinsmobility 	startTime 	1.2
scalar FranciscoScenario.node[115].veinsmobility 	totalTime 	17.5
scalar FranciscoScenario.node[115].veinsmobility 	stopTime 	18.7
scalar FranciscoScenario.node[115].veinsmobility 	minSpeed 	3.4489728519424
scalar FranciscoScenario.node[115].veinsmobility 	maxSpeed 	13.889859896889
scalar FranciscoScenario.node[115].veinsmobility 	totalDistance 	203.85894920976
scalar FranciscoScenario.node[115].veinsmobility 	totalCO2Emission 	42.074123302396
scalar FranciscoScenario.stats 	allMessagesReceivedSignal:count 	2683
attr description  "All Messages Received"
scalar FranciscoScenario.stats 	allWarningsReceivedSignal:count 	2683
attr description  "All Warnings Received"
scalar FranciscoScenario.stats 	allNewWarningsReceivedSignal:count 	200
attr description  "All New Warnings Received"
scalar FranciscoScenario.stats 	allBeaconsReceivedSignal:count 	0
attr description  "All Beacons Received"
