version 2
run Flooding-0-20140819-09:02:47-6284
attr configname Flooding
attr datetime 20140819-09:02:47
attr experiment Flooding
attr inifile omnetpp.ini
attr iterationvars ""
attr iterationvars2 $repetition=0
attr measurement ""
attr network src.modules.scenario.FranciscoScenario
attr processid 6284
attr repetition 0
attr replication #0
attr resultdir results
attr runnumber 0
attr seedset 0

scalar FranciscoScenario.node[23].appl 	newWarningReceivedSignal:count 	0
attr description  "New Warning Received"
scalar FranciscoScenario.node[23].appl 	messageReceivedSignal:count 	0
attr description  "Message Received"
scalar FranciscoScenario.node[23].appl 	beaconReceivedSignal:count 	0
attr description  "Beacon Received"
scalar FranciscoScenario.node[23].appl 	warningReceivedSignal:count 	0
attr description  "Warning Received"
scalar FranciscoScenario.node[23].nic.phy80211p 	busyTime 	0
scalar FranciscoScenario.node[23].nic.mac1609_4 	ReceivedUnicastPackets 	0
scalar FranciscoScenario.node[23].nic.mac1609_4 	ReceivedBroadcasts 	0
scalar FranciscoScenario.node[23].nic.mac1609_4 	SentPackets 	0
scalar FranciscoScenario.node[23].nic.mac1609_4 	SNIRLostPackets 	0
scalar FranciscoScenario.node[23].nic.mac1609_4 	RXTXLostPackets 	0
scalar FranciscoScenario.node[23].nic.mac1609_4 	TotalLostPackets 	0
scalar FranciscoScenario.node[23].nic.mac1609_4 	DroppedPacketsInMac 	0
scalar FranciscoScenario.node[23].nic.mac1609_4 	TooLittleTime 	0
scalar FranciscoScenario.node[23].nic.mac1609_4 	TimesIntoBackoff 	0
scalar FranciscoScenario.node[23].nic.mac1609_4 	SlotsBackoff 	0
scalar FranciscoScenario.node[23].nic.mac1609_4 	NumInternalContention 	0
scalar FranciscoScenario.node[23].nic.mac1609_4 	totalBusyTime 	0
scalar FranciscoScenario.node[23].veinsmobility 	startTime 	1.2
scalar FranciscoScenario.node[23].veinsmobility 	totalTime 	0
scalar FranciscoScenario.node[23].veinsmobility 	stopTime 	1.3
scalar FranciscoScenario.node[23].veinsmobility 	totalDistance 	0
scalar FranciscoScenario.node[23].veinsmobility 	totalCO2Emission 	0
scalar FranciscoScenario.node[0].appl 	newWarningReceivedSignal:count 	0
attr description  "New Warning Received"
scalar FranciscoScenario.node[0].appl 	messageReceivedSignal:count 	0
attr description  "Message Received"
scalar FranciscoScenario.node[0].appl 	beaconReceivedSignal:count 	0
attr description  "Beacon Received"
scalar FranciscoScenario.node[0].appl 	warningReceivedSignal:count 	0
attr description  "Warning Received"
scalar FranciscoScenario.node[0].nic.phy80211p 	busyTime 	0
scalar FranciscoScenario.node[0].nic.mac1609_4 	ReceivedUnicastPackets 	0
scalar FranciscoScenario.node[0].nic.mac1609_4 	ReceivedBroadcasts 	0
scalar FranciscoScenario.node[0].nic.mac1609_4 	SentPackets 	0
scalar FranciscoScenario.node[0].nic.mac1609_4 	SNIRLostPackets 	0
scalar FranciscoScenario.node[0].nic.mac1609_4 	RXTXLostPackets 	0
scalar FranciscoScenario.node[0].nic.mac1609_4 	TotalLostPackets 	0
scalar FranciscoScenario.node[0].nic.mac1609_4 	DroppedPacketsInMac 	0
scalar FranciscoScenario.node[0].nic.mac1609_4 	TooLittleTime 	0
scalar FranciscoScenario.node[0].nic.mac1609_4 	TimesIntoBackoff 	0
scalar FranciscoScenario.node[0].nic.mac1609_4 	SlotsBackoff 	0
scalar FranciscoScenario.node[0].nic.mac1609_4 	NumInternalContention 	0
scalar FranciscoScenario.node[0].nic.mac1609_4 	totalBusyTime 	0
scalar FranciscoScenario.node[0].veinsmobility 	startTime 	0.1
scalar FranciscoScenario.node[0].veinsmobility 	totalTime 	11.2
scalar FranciscoScenario.node[0].veinsmobility 	stopTime 	11.302636712283
scalar FranciscoScenario.node[0].veinsmobility 	minSpeed 	0.25286542447004
scalar FranciscoScenario.node[0].veinsmobility 	maxSpeed 	11.179894360469
scalar FranciscoScenario.node[0].veinsmobility 	totalDistance 	78.457510114471
scalar FranciscoScenario.node[0].veinsmobility 	totalCO2Emission 	33.137591148961
scalar FranciscoScenario.node[1].appl 	newWarningReceivedSignal:count 	0
attr description  "New Warning Received"
scalar FranciscoScenario.node[1].appl 	messageReceivedSignal:count 	0
attr description  "Message Received"
scalar FranciscoScenario.node[1].appl 	beaconReceivedSignal:count 	0
attr description  "Beacon Received"
scalar FranciscoScenario.node[1].appl 	warningReceivedSignal:count 	0
attr description  "Warning Received"
scalar FranciscoScenario.node[1].nic.phy80211p 	busyTime 	0
scalar FranciscoScenario.node[1].nic.mac1609_4 	ReceivedUnicastPackets 	0
scalar FranciscoScenario.node[1].nic.mac1609_4 	ReceivedBroadcasts 	0
scalar FranciscoScenario.node[1].nic.mac1609_4 	SentPackets 	0
scalar FranciscoScenario.node[1].nic.mac1609_4 	SNIRLostPackets 	0
scalar FranciscoScenario.node[1].nic.mac1609_4 	RXTXLostPackets 	0
scalar FranciscoScenario.node[1].nic.mac1609_4 	TotalLostPackets 	0
scalar FranciscoScenario.node[1].nic.mac1609_4 	DroppedPacketsInMac 	0
scalar FranciscoScenario.node[1].nic.mac1609_4 	TooLittleTime 	0
scalar FranciscoScenario.node[1].nic.mac1609_4 	TimesIntoBackoff 	0
scalar FranciscoScenario.node[1].nic.mac1609_4 	SlotsBackoff 	0
scalar FranciscoScenario.node[1].nic.mac1609_4 	NumInternalContention 	0
scalar FranciscoScenario.node[1].nic.mac1609_4 	totalBusyTime 	0
scalar FranciscoScenario.node[1].veinsmobility 	startTime 	1.1
scalar FranciscoScenario.node[1].veinsmobility 	totalTime 	10.2
scalar FranciscoScenario.node[1].veinsmobility 	stopTime 	11.302636712283
scalar FranciscoScenario.node[1].veinsmobility 	minSpeed 	0.2550030377931
scalar FranciscoScenario.node[1].veinsmobility 	maxSpeed 	13.514751902927
scalar FranciscoScenario.node[1].veinsmobility 	totalDistance 	75.048399032843
scalar FranciscoScenario.node[1].veinsmobility 	totalCO2Emission 	35.791628166304
scalar FranciscoScenario.node[203].appl 	newWarningReceivedSignal:count 	0
attr description  "New Warning Received"
scalar FranciscoScenario.node[203].appl 	messageReceivedSignal:count 	0
attr description  "Message Received"
scalar FranciscoScenario.node[203].appl 	beaconReceivedSignal:count 	0
attr description  "Beacon Received"
scalar FranciscoScenario.node[203].appl 	warningReceivedSignal:count 	0
attr description  "Warning Received"
scalar FranciscoScenario.node[203].nic.phy80211p 	busyTime 	0
scalar FranciscoScenario.node[203].nic.mac1609_4 	ReceivedUnicastPackets 	0
scalar FranciscoScenario.node[203].nic.mac1609_4 	ReceivedBroadcasts 	0
scalar FranciscoScenario.node[203].nic.mac1609_4 	SentPackets 	0
scalar FranciscoScenario.node[203].nic.mac1609_4 	SNIRLostPackets 	0
scalar FranciscoScenario.node[203].nic.mac1609_4 	RXTXLostPackets 	0
scalar FranciscoScenario.node[203].nic.mac1609_4 	TotalLostPackets 	0
scalar FranciscoScenario.node[203].nic.mac1609_4 	DroppedPacketsInMac 	0
scalar FranciscoScenario.node[203].nic.mac1609_4 	TooLittleTime 	0
scalar FranciscoScenario.node[203].nic.mac1609_4 	TimesIntoBackoff 	0
scalar FranciscoScenario.node[203].nic.mac1609_4 	SlotsBackoff 	0
scalar FranciscoScenario.node[203].nic.mac1609_4 	NumInternalContention 	0
scalar FranciscoScenario.node[203].nic.mac1609_4 	totalBusyTime 	0
scalar FranciscoScenario.node[203].veinsmobility 	startTime 	10.1
scalar FranciscoScenario.node[203].veinsmobility 	totalTime 	1.2
scalar FranciscoScenario.node[203].veinsmobility 	stopTime 	11.302636712283
scalar FranciscoScenario.node[203].veinsmobility 	minSpeed 	0.25565228065522
scalar FranciscoScenario.node[203].veinsmobility 	maxSpeed 	2.7637607662531
scalar FranciscoScenario.node[203].veinsmobility 	totalDistance 	1.8694328726527
scalar FranciscoScenario.node[203].veinsmobility 	totalCO2Emission 	2.2934118366734
scalar FranciscoScenario.node[204].appl 	newWarningReceivedSignal:count 	2
attr description  "New Warning Received"
scalar FranciscoScenario.node[204].appl 	messageReceivedSignal:count 	2
attr description  "Message Received"
scalar FranciscoScenario.node[204].appl 	beaconReceivedSignal:count 	0
attr description  "Beacon Received"
scalar FranciscoScenario.node[204].appl 	warningReceivedSignal:count 	2
attr description  "Warning Received"
scalar FranciscoScenario.node[204].nic.phy80211p 	busyTime 	0.0023687711401952
scalar FranciscoScenario.node[204].nic.mac1609_4 	ReceivedUnicastPackets 	0
scalar FranciscoScenario.node[204].nic.mac1609_4 	ReceivedBroadcasts 	2
scalar FranciscoScenario.node[204].nic.mac1609_4 	SentPackets 	0
scalar FranciscoScenario.node[204].nic.mac1609_4 	SNIRLostPackets 	2
scalar FranciscoScenario.node[204].nic.mac1609_4 	RXTXLostPackets 	0
scalar FranciscoScenario.node[204].nic.mac1609_4 	TotalLostPackets 	2
scalar FranciscoScenario.node[204].nic.mac1609_4 	DroppedPacketsInMac 	0
scalar FranciscoScenario.node[204].nic.mac1609_4 	TooLittleTime 	0
scalar FranciscoScenario.node[204].nic.mac1609_4 	TimesIntoBackoff 	0
scalar FranciscoScenario.node[204].nic.mac1609_4 	SlotsBackoff 	0
scalar FranciscoScenario.node[204].nic.mac1609_4 	NumInternalContention 	0
scalar FranciscoScenario.node[204].nic.mac1609_4 	totalBusyTime 	0.000360531849
scalar FranciscoScenario.node[204].veinsmobility 	startTime 	11.1
scalar FranciscoScenario.node[204].veinsmobility 	totalTime 	0.2
scalar FranciscoScenario.node[204].veinsmobility 	stopTime 	11.302636712283
scalar FranciscoScenario.node[204].veinsmobility 	minSpeed 	0.25938487417693
scalar FranciscoScenario.node[204].veinsmobility 	maxSpeed 	0.49492078681921
scalar FranciscoScenario.node[204].veinsmobility 	totalDistance 	0.075450676927706
scalar FranciscoScenario.node[204].veinsmobility 	totalCO2Emission 	0.14148237800638
scalar FranciscoScenario.node[165].appl 	newWarningReceivedSignal:count 	2
attr description  "New Warning Received"
scalar FranciscoScenario.node[165].appl 	messageReceivedSignal:count 	2
attr description  "Message Received"
scalar FranciscoScenario.node[165].appl 	beaconReceivedSignal:count 	0
attr description  "Beacon Received"
scalar FranciscoScenario.node[165].appl 	warningReceivedSignal:count 	2
attr description  "Warning Received"
scalar FranciscoScenario.node[165].nic.phy80211p 	busyTime 	7.5924025973182e-05
scalar FranciscoScenario.node[165].nic.mac1609_4 	ReceivedUnicastPackets 	0
scalar FranciscoScenario.node[165].nic.mac1609_4 	ReceivedBroadcasts 	2
scalar FranciscoScenario.node[165].nic.mac1609_4 	SentPackets 	0
scalar FranciscoScenario.node[165].nic.mac1609_4 	SNIRLostPackets 	1
scalar FranciscoScenario.node[165].nic.mac1609_4 	RXTXLostPackets 	0
scalar FranciscoScenario.node[165].nic.mac1609_4 	TotalLostPackets 	1
scalar FranciscoScenario.node[165].nic.mac1609_4 	DroppedPacketsInMac 	0
scalar FranciscoScenario.node[165].nic.mac1609_4 	TooLittleTime 	0
scalar FranciscoScenario.node[165].nic.mac1609_4 	TimesIntoBackoff 	0
scalar FranciscoScenario.node[165].nic.mac1609_4 	SlotsBackoff 	0
scalar FranciscoScenario.node[165].nic.mac1609_4 	NumInternalContention 	0
scalar FranciscoScenario.node[165].nic.mac1609_4 	totalBusyTime 	0.000239999998
scalar FranciscoScenario.node[165].veinsmobility 	startTime 	3.4
scalar FranciscoScenario.node[165].veinsmobility 	totalTime 	7.9
scalar FranciscoScenario.node[165].veinsmobility 	stopTime 	11.302636712283
scalar FranciscoScenario.node[165].veinsmobility 	minSpeed 	0.25850802434678
scalar FranciscoScenario.node[165].veinsmobility 	maxSpeed 	11.677908115261
scalar FranciscoScenario.node[165].veinsmobility 	totalDistance 	55.400794109158
scalar FranciscoScenario.node[165].veinsmobility 	totalCO2Emission 	27.122828109585
scalar FranciscoScenario.node[164].appl 	newWarningReceivedSignal:count 	0
attr description  "New Warning Received"
scalar FranciscoScenario.node[164].appl 	messageReceivedSignal:count 	0
attr description  "Message Received"
scalar FranciscoScenario.node[164].appl 	beaconReceivedSignal:count 	0
attr description  "Beacon Received"
scalar FranciscoScenario.node[164].appl 	warningReceivedSignal:count 	0
attr description  "Warning Received"
scalar FranciscoScenario.node[164].nic.phy80211p 	busyTime 	1.4629442118326e-05
scalar FranciscoScenario.node[164].nic.mac1609_4 	ReceivedUnicastPackets 	0
scalar FranciscoScenario.node[164].nic.mac1609_4 	ReceivedBroadcasts 	0
scalar FranciscoScenario.node[164].nic.mac1609_4 	SentPackets 	0
scalar FranciscoScenario.node[164].nic.mac1609_4 	SNIRLostPackets 	0
scalar FranciscoScenario.node[164].nic.mac1609_4 	RXTXLostPackets 	0
scalar FranciscoScenario.node[164].nic.mac1609_4 	TotalLostPackets 	0
scalar FranciscoScenario.node[164].nic.mac1609_4 	DroppedPacketsInMac 	0
scalar FranciscoScenario.node[164].nic.mac1609_4 	TooLittleTime 	0
scalar FranciscoScenario.node[164].nic.mac1609_4 	TimesIntoBackoff 	0
scalar FranciscoScenario.node[164].nic.mac1609_4 	SlotsBackoff 	0
scalar FranciscoScenario.node[164].nic.mac1609_4 	NumInternalContention 	0
scalar FranciscoScenario.node[164].nic.mac1609_4 	totalBusyTime 	0
scalar FranciscoScenario.node[164].veinsmobility 	startTime 	3.1
scalar FranciscoScenario.node[164].veinsmobility 	totalTime 	8.2
scalar FranciscoScenario.node[164].veinsmobility 	stopTime 	11.302636712283
scalar FranciscoScenario.node[164].veinsmobility 	minSpeed 	0.2540216223523
scalar FranciscoScenario.node[164].veinsmobility 	maxSpeed 	13.88810008599
scalar FranciscoScenario.node[164].veinsmobility 	totalDistance 	66.131894423754
scalar FranciscoScenario.node[164].veinsmobility 	totalCO2Emission 	36.52955742509
scalar FranciscoScenario.node[166].appl 	newWarningReceivedSignal:count 	1
attr description  "New Warning Received"
scalar FranciscoScenario.node[166].appl 	messageReceivedSignal:count 	1
attr description  "Message Received"
scalar FranciscoScenario.node[166].appl 	beaconReceivedSignal:count 	0
attr description  "Beacon Received"
scalar FranciscoScenario.node[166].appl 	warningReceivedSignal:count 	1
attr description  "Warning Received"
scalar FranciscoScenario.node[166].nic.phy80211p 	busyTime 	4.9981695784549e-05
scalar FranciscoScenario.node[166].nic.mac1609_4 	ReceivedUnicastPackets 	0
scalar FranciscoScenario.node[166].nic.mac1609_4 	ReceivedBroadcasts 	1
scalar FranciscoScenario.node[166].nic.mac1609_4 	SentPackets 	0
scalar FranciscoScenario.node[166].nic.mac1609_4 	SNIRLostPackets 	2
scalar FranciscoScenario.node[166].nic.mac1609_4 	RXTXLostPackets 	0
scalar FranciscoScenario.node[166].nic.mac1609_4 	TotalLostPackets 	2
scalar FranciscoScenario.node[166].nic.mac1609_4 	DroppedPacketsInMac 	0
scalar FranciscoScenario.node[166].nic.mac1609_4 	TooLittleTime 	0
scalar FranciscoScenario.node[166].nic.mac1609_4 	TimesIntoBackoff 	0
scalar FranciscoScenario.node[166].nic.mac1609_4 	SlotsBackoff 	0
scalar FranciscoScenario.node[166].nic.mac1609_4 	NumInternalContention 	0
scalar FranciscoScenario.node[166].nic.mac1609_4 	totalBusyTime 	0.000240227023
scalar FranciscoScenario.node[166].veinsmobility 	startTime 	4.1
scalar FranciscoScenario.node[166].veinsmobility 	totalTime 	7.2
scalar FranciscoScenario.node[166].veinsmobility 	stopTime 	11.302636712283
scalar FranciscoScenario.node[166].veinsmobility 	minSpeed 	0.2553891892496
scalar FranciscoScenario.node[166].veinsmobility 	maxSpeed 	13.186832701428
scalar FranciscoScenario.node[166].veinsmobility 	totalDistance 	51.595582798958
scalar FranciscoScenario.node[166].veinsmobility 	totalCO2Emission 	31.882724279513
scalar FranciscoScenario.node[189].appl 	newWarningReceivedSignal:count 	0
attr description  "New Warning Received"
scalar FranciscoScenario.node[189].appl 	messageReceivedSignal:count 	0
attr description  "Message Received"
scalar FranciscoScenario.node[189].appl 	beaconReceivedSignal:count 	0
attr description  "Beacon Received"
scalar FranciscoScenario.node[189].appl 	warningReceivedSignal:count 	0
attr description  "Warning Received"
scalar FranciscoScenario.node[189].nic.phy80211p 	busyTime 	0
scalar FranciscoScenario.node[189].nic.mac1609_4 	ReceivedUnicastPackets 	0
scalar FranciscoScenario.node[189].nic.mac1609_4 	ReceivedBroadcasts 	0
scalar FranciscoScenario.node[189].nic.mac1609_4 	SentPackets 	0
scalar FranciscoScenario.node[189].nic.mac1609_4 	SNIRLostPackets 	0
scalar FranciscoScenario.node[189].nic.mac1609_4 	RXTXLostPackets 	0
scalar FranciscoScenario.node[189].nic.mac1609_4 	TotalLostPackets 	0
scalar FranciscoScenario.node[189].nic.mac1609_4 	DroppedPacketsInMac 	0
scalar FranciscoScenario.node[189].nic.mac1609_4 	TooLittleTime 	0
scalar FranciscoScenario.node[189].nic.mac1609_4 	TimesIntoBackoff 	0
scalar FranciscoScenario.node[189].nic.mac1609_4 	SlotsBackoff 	0
scalar FranciscoScenario.node[189].nic.mac1609_4 	NumInternalContention 	0
scalar FranciscoScenario.node[189].nic.mac1609_4 	totalBusyTime 	0
scalar FranciscoScenario.node[189].veinsmobility 	startTime 	5.4
scalar FranciscoScenario.node[189].veinsmobility 	totalTime 	5.9
scalar FranciscoScenario.node[189].veinsmobility 	stopTime 	11.302636712283
scalar FranciscoScenario.node[189].veinsmobility 	minSpeed 	0.25660798785393
scalar FranciscoScenario.node[189].veinsmobility 	maxSpeed 	11.161438521834
scalar FranciscoScenario.node[189].veinsmobility 	totalDistance 	35.796285374036
scalar FranciscoScenario.node[189].veinsmobility 	totalCO2Emission 	23.577633396081
scalar FranciscoScenario.node[196].appl 	newWarningReceivedSignal:count 	1
attr description  "New Warning Received"
scalar FranciscoScenario.node[196].appl 	messageReceivedSignal:count 	1
attr description  "Message Received"
scalar FranciscoScenario.node[196].appl 	beaconReceivedSignal:count 	0
attr description  "Beacon Received"
scalar FranciscoScenario.node[196].appl 	warningReceivedSignal:count 	1
attr description  "Warning Received"
scalar FranciscoScenario.node[196].nic.phy80211p 	busyTime 	2.8553502768697e-05
scalar FranciscoScenario.node[196].nic.mac1609_4 	ReceivedUnicastPackets 	0
scalar FranciscoScenario.node[196].nic.mac1609_4 	ReceivedBroadcasts 	1
scalar FranciscoScenario.node[196].nic.mac1609_4 	SentPackets 	0
scalar FranciscoScenario.node[196].nic.mac1609_4 	SNIRLostPackets 	0
scalar FranciscoScenario.node[196].nic.mac1609_4 	RXTXLostPackets 	0
scalar FranciscoScenario.node[196].nic.mac1609_4 	TotalLostPackets 	0
scalar FranciscoScenario.node[196].nic.mac1609_4 	DroppedPacketsInMac 	0
scalar FranciscoScenario.node[196].nic.mac1609_4 	TooLittleTime 	0
scalar FranciscoScenario.node[196].nic.mac1609_4 	TimesIntoBackoff 	0
scalar FranciscoScenario.node[196].nic.mac1609_4 	SlotsBackoff 	0
scalar FranciscoScenario.node[196].nic.mac1609_4 	NumInternalContention 	0
scalar FranciscoScenario.node[196].nic.mac1609_4 	totalBusyTime 	0.000119999999
scalar FranciscoScenario.node[196].veinsmobility 	startTime 	7.1
scalar FranciscoScenario.node[196].veinsmobility 	totalTime 	4.2
scalar FranciscoScenario.node[196].veinsmobility 	stopTime 	11.302636712283
scalar FranciscoScenario.node[196].veinsmobility 	minSpeed 	0.25996482142643
scalar FranciscoScenario.node[196].veinsmobility 	maxSpeed 	8.7109024456882
scalar FranciscoScenario.node[196].veinsmobility 	totalDistance 	19.124037028643
scalar FranciscoScenario.node[196].veinsmobility 	totalCO2Emission 	14.891575628124
scalar FranciscoScenario.node[199].appl 	newWarningReceivedSignal:count 	0
attr description  "New Warning Received"
scalar FranciscoScenario.node[199].appl 	messageReceivedSignal:count 	0
attr description  "Message Received"
scalar FranciscoScenario.node[199].appl 	beaconReceivedSignal:count 	0
attr description  "Beacon Received"
scalar FranciscoScenario.node[199].appl 	warningReceivedSignal:count 	0
attr description  "Warning Received"
scalar FranciscoScenario.node[199].nic.phy80211p 	busyTime 	3.7469126154636e-05
scalar FranciscoScenario.node[199].nic.mac1609_4 	ReceivedUnicastPackets 	0
scalar FranciscoScenario.node[199].nic.mac1609_4 	ReceivedBroadcasts 	0
scalar FranciscoScenario.node[199].nic.mac1609_4 	SentPackets 	0
scalar FranciscoScenario.node[199].nic.mac1609_4 	SNIRLostPackets 	0
scalar FranciscoScenario.node[199].nic.mac1609_4 	RXTXLostPackets 	0
scalar FranciscoScenario.node[199].nic.mac1609_4 	TotalLostPackets 	0
scalar FranciscoScenario.node[199].nic.mac1609_4 	DroppedPacketsInMac 	0
scalar FranciscoScenario.node[199].nic.mac1609_4 	TooLittleTime 	0
scalar FranciscoScenario.node[199].nic.mac1609_4 	TimesIntoBackoff 	0
scalar FranciscoScenario.node[199].nic.mac1609_4 	SlotsBackoff 	0
scalar FranciscoScenario.node[199].nic.mac1609_4 	NumInternalContention 	0
scalar FranciscoScenario.node[199].nic.mac1609_4 	totalBusyTime 	0
scalar FranciscoScenario.node[199].veinsmobility 	startTime 	8.1
scalar FranciscoScenario.node[199].veinsmobility 	totalTime 	3.2
scalar FranciscoScenario.node[199].veinsmobility 	stopTime 	11.302636712283
scalar FranciscoScenario.node[199].veinsmobility 	minSpeed 	0.25471263598534
scalar FranciscoScenario.node[199].veinsmobility 	maxSpeed 	6.6580525897404
scalar FranciscoScenario.node[199].veinsmobility 	totalDistance 	11.31626686228
scalar FranciscoScenario.node[199].veinsmobility 	totalCO2Emission 	9.50826650421
scalar FranciscoScenario.node[201].appl 	newWarningReceivedSignal:count 	1
attr description  "New Warning Received"
scalar FranciscoScenario.node[201].appl 	messageReceivedSignal:count 	1
attr description  "Message Received"
scalar FranciscoScenario.node[201].appl 	beaconReceivedSignal:count 	0
attr description  "Beacon Received"
scalar FranciscoScenario.node[201].appl 	warningReceivedSignal:count 	1
attr description  "Warning Received"
scalar FranciscoScenario.node[201].nic.phy80211p 	busyTime 	0.00021792063726319
scalar FranciscoScenario.node[201].nic.mac1609_4 	ReceivedUnicastPackets 	0
scalar FranciscoScenario.node[201].nic.mac1609_4 	ReceivedBroadcasts 	1
scalar FranciscoScenario.node[201].nic.mac1609_4 	SentPackets 	1
scalar FranciscoScenario.node[201].nic.mac1609_4 	SNIRLostPackets 	2
scalar FranciscoScenario.node[201].nic.mac1609_4 	RXTXLostPackets 	0
scalar FranciscoScenario.node[201].nic.mac1609_4 	TotalLostPackets 	2
scalar FranciscoScenario.node[201].nic.mac1609_4 	DroppedPacketsInMac 	0
scalar FranciscoScenario.node[201].nic.mac1609_4 	TooLittleTime 	0
scalar FranciscoScenario.node[201].nic.mac1609_4 	TimesIntoBackoff 	1
scalar FranciscoScenario.node[201].nic.mac1609_4 	SlotsBackoff 	7
scalar FranciscoScenario.node[201].nic.mac1609_4 	NumInternalContention 	0
scalar FranciscoScenario.node[201].nic.mac1609_4 	totalBusyTime 	0.000240999998
scalar FranciscoScenario.node[201].veinsmobility 	startTime 	9.1
scalar FranciscoScenario.node[201].veinsmobility 	totalTime 	2.2
scalar FranciscoScenario.node[201].veinsmobility 	stopTime 	11.302636712283
scalar FranciscoScenario.node[201].veinsmobility 	minSpeed 	0.25755153372791
scalar FranciscoScenario.node[201].veinsmobility 	maxSpeed 	4.8803763555026
scalar FranciscoScenario.node[201].veinsmobility 	totalDistance 	5.7036986433568
scalar FranciscoScenario.node[201].veinsmobility 	totalCO2Emission 	5.598308334848
scalar FranciscoScenario.node[187].appl 	newWarningReceivedSignal:count 	0
attr description  "New Warning Received"
scalar FranciscoScenario.node[187].appl 	messageReceivedSignal:count 	0
attr description  "Message Received"
scalar FranciscoScenario.node[187].appl 	beaconReceivedSignal:count 	0
attr description  "Beacon Received"
scalar FranciscoScenario.node[187].appl 	warningReceivedSignal:count 	0
attr description  "Warning Received"
scalar FranciscoScenario.node[187].nic.phy80211p 	busyTime 	0
scalar FranciscoScenario.node[187].nic.mac1609_4 	ReceivedUnicastPackets 	0
scalar FranciscoScenario.node[187].nic.mac1609_4 	ReceivedBroadcasts 	0
scalar FranciscoScenario.node[187].nic.mac1609_4 	SentPackets 	0
scalar FranciscoScenario.node[187].nic.mac1609_4 	SNIRLostPackets 	0
scalar FranciscoScenario.node[187].nic.mac1609_4 	RXTXLostPackets 	0
scalar FranciscoScenario.node[187].nic.mac1609_4 	TotalLostPackets 	0
scalar FranciscoScenario.node[187].nic.mac1609_4 	DroppedPacketsInMac 	0
scalar FranciscoScenario.node[187].nic.mac1609_4 	TooLittleTime 	0
scalar FranciscoScenario.node[187].nic.mac1609_4 	TimesIntoBackoff 	0
scalar FranciscoScenario.node[187].nic.mac1609_4 	SlotsBackoff 	0
scalar FranciscoScenario.node[187].nic.mac1609_4 	NumInternalContention 	0
scalar FranciscoScenario.node[187].nic.mac1609_4 	totalBusyTime 	0
scalar FranciscoScenario.node[187].veinsmobility 	startTime 	4.8
scalar FranciscoScenario.node[187].veinsmobility 	totalTime 	6.5
scalar FranciscoScenario.node[187].veinsmobility 	stopTime 	11.302636712283
scalar FranciscoScenario.node[187].veinsmobility 	minSpeed 	6.2538408631592
scalar FranciscoScenario.node[187].veinsmobility 	maxSpeed 	11.156027865016
scalar FranciscoScenario.node[187].veinsmobility 	totalDistance 	62.981217726811
scalar FranciscoScenario.node[187].veinsmobility 	totalCO2Emission 	10.242248872268
scalar FranciscoScenario.node[193].appl 	newWarningReceivedSignal:count 	0
attr description  "New Warning Received"
scalar FranciscoScenario.node[193].appl 	messageReceivedSignal:count 	0
attr description  "Message Received"
scalar FranciscoScenario.node[193].appl 	beaconReceivedSignal:count 	0
attr description  "Beacon Received"
scalar FranciscoScenario.node[193].appl 	warningReceivedSignal:count 	0
attr description  "Warning Received"
scalar FranciscoScenario.node[193].nic.phy80211p 	busyTime 	0
scalar FranciscoScenario.node[193].nic.mac1609_4 	ReceivedUnicastPackets 	0
scalar FranciscoScenario.node[193].nic.mac1609_4 	ReceivedBroadcasts 	0
scalar FranciscoScenario.node[193].nic.mac1609_4 	SentPackets 	0
scalar FranciscoScenario.node[193].nic.mac1609_4 	SNIRLostPackets 	0
scalar FranciscoScenario.node[193].nic.mac1609_4 	RXTXLostPackets 	0
scalar FranciscoScenario.node[193].nic.mac1609_4 	TotalLostPackets 	0
scalar FranciscoScenario.node[193].nic.mac1609_4 	DroppedPacketsInMac 	0
scalar FranciscoScenario.node[193].nic.mac1609_4 	TooLittleTime 	0
scalar FranciscoScenario.node[193].nic.mac1609_4 	TimesIntoBackoff 	0
scalar FranciscoScenario.node[193].nic.mac1609_4 	SlotsBackoff 	0
scalar FranciscoScenario.node[193].nic.mac1609_4 	NumInternalContention 	0
scalar FranciscoScenario.node[193].nic.mac1609_4 	totalBusyTime 	0
scalar FranciscoScenario.node[193].veinsmobility 	startTime 	6.5
scalar FranciscoScenario.node[193].veinsmobility 	totalTime 	4.8
scalar FranciscoScenario.node[193].veinsmobility 	stopTime 	11.302636712283
scalar FranciscoScenario.node[193].veinsmobility 	minSpeed 	7.2700677266203
scalar FranciscoScenario.node[193].veinsmobility 	maxSpeed 	11.165238830853
scalar FranciscoScenario.node[193].veinsmobility 	totalDistance 	46.722074024226
scalar FranciscoScenario.node[193].veinsmobility 	totalCO2Emission 	6.5083398403032
scalar FranciscoScenario.node[167].appl 	newWarningReceivedSignal:count 	0
attr description  "New Warning Received"
scalar FranciscoScenario.node[167].appl 	messageReceivedSignal:count 	0
attr description  "Message Received"
scalar FranciscoScenario.node[167].appl 	beaconReceivedSignal:count 	0
attr description  "Beacon Received"
scalar FranciscoScenario.node[167].appl 	warningReceivedSignal:count 	0
attr description  "Warning Received"
scalar FranciscoScenario.node[167].nic.phy80211p 	busyTime 	0
scalar FranciscoScenario.node[167].nic.mac1609_4 	ReceivedUnicastPackets 	0
scalar FranciscoScenario.node[167].nic.mac1609_4 	ReceivedBroadcasts 	0
scalar FranciscoScenario.node[167].nic.mac1609_4 	SentPackets 	0
scalar FranciscoScenario.node[167].nic.mac1609_4 	SNIRLostPackets 	0
scalar FranciscoScenario.node[167].nic.mac1609_4 	RXTXLostPackets 	0
scalar FranciscoScenario.node[167].nic.mac1609_4 	TotalLostPackets 	0
scalar FranciscoScenario.node[167].nic.mac1609_4 	DroppedPacketsInMac 	0
scalar FranciscoScenario.node[167].nic.mac1609_4 	TooLittleTime 	0
scalar FranciscoScenario.node[167].nic.mac1609_4 	TimesIntoBackoff 	0
scalar FranciscoScenario.node[167].nic.mac1609_4 	SlotsBackoff 	0
scalar FranciscoScenario.node[167].nic.mac1609_4 	NumInternalContention 	0
scalar FranciscoScenario.node[167].nic.mac1609_4 	totalBusyTime 	0
scalar FranciscoScenario.node[167].veinsmobility 	startTime 	4.4
scalar FranciscoScenario.node[167].veinsmobility 	totalTime 	6.9
scalar FranciscoScenario.node[167].veinsmobility 	stopTime 	11.302636712283
scalar FranciscoScenario.node[167].veinsmobility 	minSpeed 	4.8773872380303
scalar FranciscoScenario.node[167].veinsmobility 	maxSpeed 	13.85566365496
scalar FranciscoScenario.node[167].veinsmobility 	totalDistance 	61.767435926838
scalar FranciscoScenario.node[167].veinsmobility 	totalCO2Emission 	7.5633271165569
scalar FranciscoScenario.node[126].appl 	newWarningReceivedSignal:count 	2
attr description  "New Warning Received"
scalar FranciscoScenario.node[126].appl 	messageReceivedSignal:count 	2
attr description  "Message Received"
scalar FranciscoScenario.node[126].appl 	beaconReceivedSignal:count 	0
attr description  "Beacon Received"
scalar FranciscoScenario.node[126].appl 	warningReceivedSignal:count 	2
attr description  "Warning Received"
scalar FranciscoScenario.node[126].nic.phy80211p 	busyTime 	5.6453075938972e-05
scalar FranciscoScenario.node[126].nic.mac1609_4 	ReceivedUnicastPackets 	0
scalar FranciscoScenario.node[126].nic.mac1609_4 	ReceivedBroadcasts 	2
scalar FranciscoScenario.node[126].nic.mac1609_4 	SentPackets 	0
scalar FranciscoScenario.node[126].nic.mac1609_4 	SNIRLostPackets 	1
scalar FranciscoScenario.node[126].nic.mac1609_4 	RXTXLostPackets 	0
scalar FranciscoScenario.node[126].nic.mac1609_4 	TotalLostPackets 	1
scalar FranciscoScenario.node[126].nic.mac1609_4 	DroppedPacketsInMac 	0
scalar FranciscoScenario.node[126].nic.mac1609_4 	TooLittleTime 	0
scalar FranciscoScenario.node[126].nic.mac1609_4 	TimesIntoBackoff 	0
scalar FranciscoScenario.node[126].nic.mac1609_4 	SlotsBackoff 	0
scalar FranciscoScenario.node[126].nic.mac1609_4 	NumInternalContention 	0
scalar FranciscoScenario.node[126].nic.mac1609_4 	totalBusyTime 	0.000239999998
scalar FranciscoScenario.node[126].veinsmobility 	startTime 	2.8
scalar FranciscoScenario.node[126].veinsmobility 	totalTime 	8.5
scalar FranciscoScenario.node[126].veinsmobility 	stopTime 	11.302636712283
scalar FranciscoScenario.node[126].veinsmobility 	minSpeed 	13.761718500943
scalar FranciscoScenario.node[126].veinsmobility 	maxSpeed 	13.885084889128
scalar FranciscoScenario.node[126].veinsmobility 	totalDistance 	117.5162158325
scalar FranciscoScenario.node[126].veinsmobility 	totalCO2Emission 	19.202562309425
scalar FranciscoScenario.node[2].appl 	newWarningReceivedSignal:count 	0
attr description  "New Warning Received"
scalar FranciscoScenario.node[2].appl 	messageReceivedSignal:count 	0
attr description  "Message Received"
scalar FranciscoScenario.node[2].appl 	beaconReceivedSignal:count 	0
attr description  "Beacon Received"
scalar FranciscoScenario.node[2].appl 	warningReceivedSignal:count 	0
attr description  "Warning Received"
scalar FranciscoScenario.node[2].nic.phy80211p 	busyTime 	0
scalar FranciscoScenario.node[2].nic.mac1609_4 	ReceivedUnicastPackets 	0
scalar FranciscoScenario.node[2].nic.mac1609_4 	ReceivedBroadcasts 	0
scalar FranciscoScenario.node[2].nic.mac1609_4 	SentPackets 	0
scalar FranciscoScenario.node[2].nic.mac1609_4 	SNIRLostPackets 	0
scalar FranciscoScenario.node[2].nic.mac1609_4 	RXTXLostPackets 	0
scalar FranciscoScenario.node[2].nic.mac1609_4 	TotalLostPackets 	0
scalar FranciscoScenario.node[2].nic.mac1609_4 	DroppedPacketsInMac 	0
scalar FranciscoScenario.node[2].nic.mac1609_4 	TooLittleTime 	0
scalar FranciscoScenario.node[2].nic.mac1609_4 	TimesIntoBackoff 	0
scalar FranciscoScenario.node[2].nic.mac1609_4 	SlotsBackoff 	0
scalar FranciscoScenario.node[2].nic.mac1609_4 	NumInternalContention 	0
scalar FranciscoScenario.node[2].nic.mac1609_4 	totalBusyTime 	0
scalar FranciscoScenario.node[2].veinsmobility 	startTime 	1.2
scalar FranciscoScenario.node[2].veinsmobility 	totalTime 	10.1
scalar FranciscoScenario.node[2].veinsmobility 	stopTime 	11.302636712283
scalar FranciscoScenario.node[2].veinsmobility 	minSpeed 	13.76055735114
scalar FranciscoScenario.node[2].veinsmobility 	maxSpeed 	13.886783931723
scalar FranciscoScenario.node[2].veinsmobility 	totalDistance 	139.61773810457
scalar FranciscoScenario.node[2].veinsmobility 	totalCO2Emission 	23.925024489088
scalar FranciscoScenario.node[3].appl 	newWarningReceivedSignal:count 	1
attr description  "New Warning Received"
scalar FranciscoScenario.node[3].appl 	messageReceivedSignal:count 	1
attr description  "Message Received"
scalar FranciscoScenario.node[3].appl 	beaconReceivedSignal:count 	0
attr description  "Beacon Received"
scalar FranciscoScenario.node[3].appl 	warningReceivedSignal:count 	1
attr description  "Warning Received"
scalar FranciscoScenario.node[3].nic.phy80211p 	busyTime 	4.7512348475958e-05
scalar FranciscoScenario.node[3].nic.mac1609_4 	ReceivedUnicastPackets 	0
scalar FranciscoScenario.node[3].nic.mac1609_4 	ReceivedBroadcasts 	1
scalar FranciscoScenario.node[3].nic.mac1609_4 	SentPackets 	0
scalar FranciscoScenario.node[3].nic.mac1609_4 	SNIRLostPackets 	1
scalar FranciscoScenario.node[3].nic.mac1609_4 	RXTXLostPackets 	0
scalar FranciscoScenario.node[3].nic.mac1609_4 	TotalLostPackets 	1
scalar FranciscoScenario.node[3].nic.mac1609_4 	DroppedPacketsInMac 	0
scalar FranciscoScenario.node[3].nic.mac1609_4 	TooLittleTime 	0
scalar FranciscoScenario.node[3].nic.mac1609_4 	TimesIntoBackoff 	0
scalar FranciscoScenario.node[3].nic.mac1609_4 	SlotsBackoff 	0
scalar FranciscoScenario.node[3].nic.mac1609_4 	NumInternalContention 	0
scalar FranciscoScenario.node[3].nic.mac1609_4 	totalBusyTime 	0.000119999999
scalar FranciscoScenario.node[3].veinsmobility 	startTime 	1.2
scalar FranciscoScenario.node[3].veinsmobility 	totalTime 	10.1
scalar FranciscoScenario.node[3].veinsmobility 	stopTime 	11.302636712283
scalar FranciscoScenario.node[3].veinsmobility 	minSpeed 	13.763279299214
scalar FranciscoScenario.node[3].veinsmobility 	maxSpeed 	13.889781015315
scalar FranciscoScenario.node[3].veinsmobility 	totalDistance 	139.59601210491
scalar FranciscoScenario.node[3].veinsmobility 	totalCO2Emission 	24.144469052589
scalar FranciscoScenario.node[4].appl 	newWarningReceivedSignal:count 	2
attr description  "New Warning Received"
scalar FranciscoScenario.node[4].appl 	messageReceivedSignal:count 	2
attr description  "Message Received"
scalar FranciscoScenario.node[4].appl 	beaconReceivedSignal:count 	0
attr description  "Beacon Received"
scalar FranciscoScenario.node[4].appl 	warningReceivedSignal:count 	2
attr description  "Warning Received"
scalar FranciscoScenario.node[4].nic.phy80211p 	busyTime 	4.7512348475958e-05
scalar FranciscoScenario.node[4].nic.mac1609_4 	ReceivedUnicastPackets 	0
scalar FranciscoScenario.node[4].nic.mac1609_4 	ReceivedBroadcasts 	2
scalar FranciscoScenario.node[4].nic.mac1609_4 	SentPackets 	0
scalar FranciscoScenario.node[4].nic.mac1609_4 	SNIRLostPackets 	1
scalar FranciscoScenario.node[4].nic.mac1609_4 	RXTXLostPackets 	0
scalar FranciscoScenario.node[4].nic.mac1609_4 	TotalLostPackets 	1
scalar FranciscoScenario.node[4].nic.mac1609_4 	DroppedPacketsInMac 	0
scalar FranciscoScenario.node[4].nic.mac1609_4 	TooLittleTime 	0
scalar FranciscoScenario.node[4].nic.mac1609_4 	TimesIntoBackoff 	0
scalar FranciscoScenario.node[4].nic.mac1609_4 	SlotsBackoff 	0
scalar FranciscoScenario.node[4].nic.mac1609_4 	NumInternalContention 	0
scalar FranciscoScenario.node[4].nic.mac1609_4 	totalBusyTime 	0.000239999998
scalar FranciscoScenario.node[4].veinsmobility 	startTime 	1.2
scalar FranciscoScenario.node[4].veinsmobility 	totalTime 	10.1
scalar FranciscoScenario.node[4].veinsmobility 	stopTime 	11.302636712283
scalar FranciscoScenario.node[4].veinsmobility 	minSpeed 	13.761030399923
scalar FranciscoScenario.node[4].veinsmobility 	maxSpeed 	13.885752488282
scalar FranciscoScenario.node[4].veinsmobility 	totalDistance 	139.58639406379
scalar FranciscoScenario.node[4].veinsmobility 	totalCO2Emission 	22.845915607795
scalar FranciscoScenario.node[185].appl 	newWarningReceivedSignal:count 	0
attr description  "New Warning Received"
scalar FranciscoScenario.node[185].appl 	messageReceivedSignal:count 	0
attr description  "Message Received"
scalar FranciscoScenario.node[185].appl 	beaconReceivedSignal:count 	0
attr description  "Beacon Received"
scalar FranciscoScenario.node[185].appl 	warningReceivedSignal:count 	0
attr description  "Warning Received"
scalar FranciscoScenario.node[185].nic.phy80211p 	busyTime 	0
scalar FranciscoScenario.node[185].nic.mac1609_4 	ReceivedUnicastPackets 	0
scalar FranciscoScenario.node[185].nic.mac1609_4 	ReceivedBroadcasts 	0
scalar FranciscoScenario.node[185].nic.mac1609_4 	SentPackets 	0
scalar FranciscoScenario.node[185].nic.mac1609_4 	SNIRLostPackets 	0
scalar FranciscoScenario.node[185].nic.mac1609_4 	RXTXLostPackets 	0
scalar FranciscoScenario.node[185].nic.mac1609_4 	TotalLostPackets 	0
scalar FranciscoScenario.node[185].nic.mac1609_4 	DroppedPacketsInMac 	0
scalar FranciscoScenario.node[185].nic.mac1609_4 	TooLittleTime 	0
scalar FranciscoScenario.node[185].nic.mac1609_4 	TimesIntoBackoff 	0
scalar FranciscoScenario.node[185].nic.mac1609_4 	SlotsBackoff 	0
scalar FranciscoScenario.node[185].nic.mac1609_4 	NumInternalContention 	0
scalar FranciscoScenario.node[185].nic.mac1609_4 	totalBusyTime 	0
scalar FranciscoScenario.node[185].veinsmobility 	startTime 	4.7
scalar FranciscoScenario.node[185].veinsmobility 	totalTime 	6.6
scalar FranciscoScenario.node[185].veinsmobility 	stopTime 	11.302636712283
scalar FranciscoScenario.node[185].veinsmobility 	minSpeed 	5.6135170447377
scalar FranciscoScenario.node[185].veinsmobility 	maxSpeed 	11.177137662116
scalar FranciscoScenario.node[185].veinsmobility 	totalDistance 	56.460683322135
scalar FranciscoScenario.node[185].veinsmobility 	totalCO2Emission 	9.1405084995043
scalar FranciscoScenario.node[5].appl 	newWarningReceivedSignal:count 	2
attr description  "New Warning Received"
scalar FranciscoScenario.node[5].appl 	messageReceivedSignal:count 	2
attr description  "Message Received"
scalar FranciscoScenario.node[5].appl 	beaconReceivedSignal:count 	0
attr description  "Beacon Received"
scalar FranciscoScenario.node[5].appl 	warningReceivedSignal:count 	2
attr description  "Warning Received"
scalar FranciscoScenario.node[5].nic.phy80211p 	busyTime 	2.3756174237979e-05
scalar FranciscoScenario.node[5].nic.mac1609_4 	ReceivedUnicastPackets 	0
scalar FranciscoScenario.node[5].nic.mac1609_4 	ReceivedBroadcasts 	2
scalar FranciscoScenario.node[5].nic.mac1609_4 	SentPackets 	0
scalar FranciscoScenario.node[5].nic.mac1609_4 	SNIRLostPackets 	0
scalar FranciscoScenario.node[5].nic.mac1609_4 	RXTXLostPackets 	0
scalar FranciscoScenario.node[5].nic.mac1609_4 	TotalLostPackets 	0
scalar FranciscoScenario.node[5].nic.mac1609_4 	DroppedPacketsInMac 	0
scalar FranciscoScenario.node[5].nic.mac1609_4 	TooLittleTime 	0
scalar FranciscoScenario.node[5].nic.mac1609_4 	TimesIntoBackoff 	0
scalar FranciscoScenario.node[5].nic.mac1609_4 	SlotsBackoff 	0
scalar FranciscoScenario.node[5].nic.mac1609_4 	NumInternalContention 	0
scalar FranciscoScenario.node[5].nic.mac1609_4 	totalBusyTime 	0.000239999998
scalar FranciscoScenario.node[5].veinsmobility 	startTime 	1.2
scalar FranciscoScenario.node[5].veinsmobility 	totalTime 	10.1
scalar FranciscoScenario.node[5].veinsmobility 	stopTime 	11.302636712283
scalar FranciscoScenario.node[5].veinsmobility 	minSpeed 	3.3922629974026
scalar FranciscoScenario.node[5].veinsmobility 	maxSpeed 	11.179389587329
scalar FranciscoScenario.node[5].veinsmobility 	totalDistance 	85.738615369891
scalar FranciscoScenario.node[5].veinsmobility 	totalCO2Emission 	18.642025685173
scalar FranciscoScenario.node[6].appl 	newWarningReceivedSignal:count 	1
attr description  "New Warning Received"
scalar FranciscoScenario.node[6].appl 	messageReceivedSignal:count 	1
attr description  "Message Received"
scalar FranciscoScenario.node[6].appl 	beaconReceivedSignal:count 	0
attr description  "Beacon Received"
scalar FranciscoScenario.node[6].appl 	warningReceivedSignal:count 	1
attr description  "Warning Received"
scalar FranciscoScenario.node[6].nic.phy80211p 	busyTime 	3.5634261356969e-05
scalar FranciscoScenario.node[6].nic.mac1609_4 	ReceivedUnicastPackets 	0
scalar FranciscoScenario.node[6].nic.mac1609_4 	ReceivedBroadcasts 	1
scalar FranciscoScenario.node[6].nic.mac1609_4 	SentPackets 	0
scalar FranciscoScenario.node[6].nic.mac1609_4 	SNIRLostPackets 	0
scalar FranciscoScenario.node[6].nic.mac1609_4 	RXTXLostPackets 	0
scalar FranciscoScenario.node[6].nic.mac1609_4 	TotalLostPackets 	0
scalar FranciscoScenario.node[6].nic.mac1609_4 	DroppedPacketsInMac 	0
scalar FranciscoScenario.node[6].nic.mac1609_4 	TooLittleTime 	0
scalar FranciscoScenario.node[6].nic.mac1609_4 	TimesIntoBackoff 	0
scalar FranciscoScenario.node[6].nic.mac1609_4 	SlotsBackoff 	0
scalar FranciscoScenario.node[6].nic.mac1609_4 	NumInternalContention 	0
scalar FranciscoScenario.node[6].nic.mac1609_4 	totalBusyTime 	0.000119999999
scalar FranciscoScenario.node[6].veinsmobility 	startTime 	1.2
scalar FranciscoScenario.node[6].veinsmobility 	totalTime 	10.1
scalar FranciscoScenario.node[6].veinsmobility 	stopTime 	11.302636712283
scalar FranciscoScenario.node[6].veinsmobility 	minSpeed 	3.428358290018
scalar FranciscoScenario.node[6].veinsmobility 	maxSpeed 	13.874540797535
scalar FranciscoScenario.node[6].veinsmobility 	totalDistance 	97.181991807846
scalar FranciscoScenario.node[6].veinsmobility 	totalCO2Emission 	25.545199801879
scalar FranciscoScenario.node[7].appl 	newWarningReceivedSignal:count 	3
attr description  "New Warning Received"
scalar FranciscoScenario.node[7].appl 	messageReceivedSignal:count 	3
attr description  "Message Received"
scalar FranciscoScenario.node[7].appl 	beaconReceivedSignal:count 	0
attr description  "Beacon Received"
scalar FranciscoScenario.node[7].appl 	warningReceivedSignal:count 	3
attr description  "Warning Received"
scalar FranciscoScenario.node[7].nic.phy80211p 	busyTime 	3.5634261356969e-05
scalar FranciscoScenario.node[7].nic.mac1609_4 	ReceivedUnicastPackets 	0
scalar FranciscoScenario.node[7].nic.mac1609_4 	ReceivedBroadcasts 	3
scalar FranciscoScenario.node[7].nic.mac1609_4 	SentPackets 	0
scalar FranciscoScenario.node[7].nic.mac1609_4 	SNIRLostPackets 	0
scalar FranciscoScenario.node[7].nic.mac1609_4 	RXTXLostPackets 	0
scalar FranciscoScenario.node[7].nic.mac1609_4 	TotalLostPackets 	0
scalar FranciscoScenario.node[7].nic.mac1609_4 	DroppedPacketsInMac 	0
scalar FranciscoScenario.node[7].nic.mac1609_4 	TooLittleTime 	0
scalar FranciscoScenario.node[7].nic.mac1609_4 	TimesIntoBackoff 	0
scalar FranciscoScenario.node[7].nic.mac1609_4 	SlotsBackoff 	0
scalar FranciscoScenario.node[7].nic.mac1609_4 	NumInternalContention 	0
scalar FranciscoScenario.node[7].nic.mac1609_4 	totalBusyTime 	0.000359999997
scalar FranciscoScenario.node[7].veinsmobility 	startTime 	1.2
scalar FranciscoScenario.node[7].veinsmobility 	totalTime 	10.1
scalar FranciscoScenario.node[7].veinsmobility 	stopTime 	11.302636712283
scalar FranciscoScenario.node[7].veinsmobility 	minSpeed 	13.760544344746
scalar FranciscoScenario.node[7].veinsmobility 	maxSpeed 	13.889052663688
scalar FranciscoScenario.node[7].veinsmobility 	totalDistance 	139.60516055379
scalar FranciscoScenario.node[7].veinsmobility 	totalCO2Emission 	23.481020416577
scalar FranciscoScenario.node[8].appl 	newWarningReceivedSignal:count 	2
attr description  "New Warning Received"
scalar FranciscoScenario.node[8].appl 	messageReceivedSignal:count 	2
attr description  "Message Received"
scalar FranciscoScenario.node[8].appl 	beaconReceivedSignal:count 	0
attr description  "Beacon Received"
scalar FranciscoScenario.node[8].appl 	warningReceivedSignal:count 	2
attr description  "Warning Received"
scalar FranciscoScenario.node[8].nic.phy80211p 	busyTime 	5.9390435594948e-05
scalar FranciscoScenario.node[8].nic.mac1609_4 	ReceivedUnicastPackets 	0
scalar FranciscoScenario.node[8].nic.mac1609_4 	ReceivedBroadcasts 	2
scalar FranciscoScenario.node[8].nic.mac1609_4 	SentPackets 	0
scalar FranciscoScenario.node[8].nic.mac1609_4 	SNIRLostPackets 	1
scalar FranciscoScenario.node[8].nic.mac1609_4 	RXTXLostPackets 	0
scalar FranciscoScenario.node[8].nic.mac1609_4 	TotalLostPackets 	1
scalar FranciscoScenario.node[8].nic.mac1609_4 	DroppedPacketsInMac 	0
scalar FranciscoScenario.node[8].nic.mac1609_4 	TooLittleTime 	0
scalar FranciscoScenario.node[8].nic.mac1609_4 	TimesIntoBackoff 	0
scalar FranciscoScenario.node[8].nic.mac1609_4 	SlotsBackoff 	0
scalar FranciscoScenario.node[8].nic.mac1609_4 	NumInternalContention 	0
scalar FranciscoScenario.node[8].nic.mac1609_4 	totalBusyTime 	0.000239999998
scalar FranciscoScenario.node[8].veinsmobility 	startTime 	1.2
scalar FranciscoScenario.node[8].veinsmobility 	totalTime 	10.1
scalar FranciscoScenario.node[8].veinsmobility 	stopTime 	11.302636712283
scalar FranciscoScenario.node[8].veinsmobility 	minSpeed 	3.4215363398635
scalar FranciscoScenario.node[8].veinsmobility 	maxSpeed 	13.887877294379
scalar FranciscoScenario.node[8].veinsmobility 	totalDistance 	90.874562393199
scalar FranciscoScenario.node[8].veinsmobility 	totalCO2Emission 	22.087303946843
scalar FranciscoScenario.node[9].appl 	newWarningReceivedSignal:count 	0
attr description  "New Warning Received"
scalar FranciscoScenario.node[9].appl 	messageReceivedSignal:count 	0
attr description  "Message Received"
scalar FranciscoScenario.node[9].appl 	beaconReceivedSignal:count 	0
attr description  "Beacon Received"
scalar FranciscoScenario.node[9].appl 	warningReceivedSignal:count 	0
attr description  "Warning Received"
scalar FranciscoScenario.node[9].nic.phy80211p 	busyTime 	1.187808711899e-05
scalar FranciscoScenario.node[9].nic.mac1609_4 	ReceivedUnicastPackets 	0
scalar FranciscoScenario.node[9].nic.mac1609_4 	ReceivedBroadcasts 	0
scalar FranciscoScenario.node[9].nic.mac1609_4 	SentPackets 	0
scalar FranciscoScenario.node[9].nic.mac1609_4 	SNIRLostPackets 	0
scalar FranciscoScenario.node[9].nic.mac1609_4 	RXTXLostPackets 	0
scalar FranciscoScenario.node[9].nic.mac1609_4 	TotalLostPackets 	0
scalar FranciscoScenario.node[9].nic.mac1609_4 	DroppedPacketsInMac 	0
scalar FranciscoScenario.node[9].nic.mac1609_4 	TooLittleTime 	0
scalar FranciscoScenario.node[9].nic.mac1609_4 	TimesIntoBackoff 	0
scalar FranciscoScenario.node[9].nic.mac1609_4 	SlotsBackoff 	0
scalar FranciscoScenario.node[9].nic.mac1609_4 	NumInternalContention 	0
scalar FranciscoScenario.node[9].nic.mac1609_4 	totalBusyTime 	0
scalar FranciscoScenario.node[9].veinsmobility 	startTime 	1.2
scalar FranciscoScenario.node[9].veinsmobility 	totalTime 	10.1
scalar FranciscoScenario.node[9].veinsmobility 	stopTime 	11.302636712283
scalar FranciscoScenario.node[9].veinsmobility 	minSpeed 	27.652748472271
scalar FranciscoScenario.node[9].veinsmobility 	maxSpeed 	27.778243868568
scalar FranciscoScenario.node[9].veinsmobility 	totalDistance 	279.9632853548
scalar FranciscoScenario.node[9].veinsmobility 	totalCO2Emission 	46.887639036528
scalar FranciscoScenario.node[127].appl 	newWarningReceivedSignal:count 	2
attr description  "New Warning Received"
scalar FranciscoScenario.node[127].appl 	messageReceivedSignal:count 	2
attr description  "Message Received"
scalar FranciscoScenario.node[127].appl 	beaconReceivedSignal:count 	0
attr description  "Beacon Received"
scalar FranciscoScenario.node[127].appl 	warningReceivedSignal:count 	2
attr description  "Warning Received"
scalar FranciscoScenario.node[127].nic.phy80211p 	busyTime 	7.0566344923714e-05
scalar FranciscoScenario.node[127].nic.mac1609_4 	ReceivedUnicastPackets 	0
scalar FranciscoScenario.node[127].nic.mac1609_4 	ReceivedBroadcasts 	2
scalar FranciscoScenario.node[127].nic.mac1609_4 	SentPackets 	0
scalar FranciscoScenario.node[127].nic.mac1609_4 	SNIRLostPackets 	1
scalar FranciscoScenario.node[127].nic.mac1609_4 	RXTXLostPackets 	0
scalar FranciscoScenario.node[127].nic.mac1609_4 	TotalLostPackets 	1
scalar FranciscoScenario.node[127].nic.mac1609_4 	DroppedPacketsInMac 	0
scalar FranciscoScenario.node[127].nic.mac1609_4 	TooLittleTime 	0
scalar FranciscoScenario.node[127].nic.mac1609_4 	TimesIntoBackoff 	0
scalar FranciscoScenario.node[127].nic.mac1609_4 	SlotsBackoff 	0
scalar FranciscoScenario.node[127].nic.mac1609_4 	NumInternalContention 	0
scalar FranciscoScenario.node[127].nic.mac1609_4 	totalBusyTime 	0.000239999998
scalar FranciscoScenario.node[127].veinsmobility 	startTime 	2.8
scalar FranciscoScenario.node[127].veinsmobility 	totalTime 	8.5
scalar FranciscoScenario.node[127].veinsmobility 	stopTime 	11.302636712283
scalar FranciscoScenario.node[127].veinsmobility 	minSpeed 	3.3613583444142
scalar FranciscoScenario.node[127].veinsmobility 	maxSpeed 	13.872557427248
scalar FranciscoScenario.node[127].veinsmobility 	totalDistance 	75.840776716242
scalar FranciscoScenario.node[127].veinsmobility 	totalCO2Emission 	12.101152946573
scalar FranciscoScenario.node[10].appl 	newWarningReceivedSignal:count 	0
attr description  "New Warning Received"
scalar FranciscoScenario.node[10].appl 	messageReceivedSignal:count 	0
attr description  "Message Received"
scalar FranciscoScenario.node[10].appl 	beaconReceivedSignal:count 	0
attr description  "Beacon Received"
scalar FranciscoScenario.node[10].appl 	warningReceivedSignal:count 	0
attr description  "Warning Received"
scalar FranciscoScenario.node[10].nic.phy80211p 	busyTime 	0
scalar FranciscoScenario.node[10].nic.mac1609_4 	ReceivedUnicastPackets 	0
scalar FranciscoScenario.node[10].nic.mac1609_4 	ReceivedBroadcasts 	0
scalar FranciscoScenario.node[10].nic.mac1609_4 	SentPackets 	0
scalar FranciscoScenario.node[10].nic.mac1609_4 	SNIRLostPackets 	0
scalar FranciscoScenario.node[10].nic.mac1609_4 	RXTXLostPackets 	0
scalar FranciscoScenario.node[10].nic.mac1609_4 	TotalLostPackets 	0
scalar FranciscoScenario.node[10].nic.mac1609_4 	DroppedPacketsInMac 	0
scalar FranciscoScenario.node[10].nic.mac1609_4 	TooLittleTime 	0
scalar FranciscoScenario.node[10].nic.mac1609_4 	TimesIntoBackoff 	0
scalar FranciscoScenario.node[10].nic.mac1609_4 	SlotsBackoff 	0
scalar FranciscoScenario.node[10].nic.mac1609_4 	NumInternalContention 	0
scalar FranciscoScenario.node[10].nic.mac1609_4 	totalBusyTime 	0
scalar FranciscoScenario.node[10].veinsmobility 	startTime 	1.2
scalar FranciscoScenario.node[10].veinsmobility 	totalTime 	10.1
scalar FranciscoScenario.node[10].veinsmobility 	stopTime 	11.302636712283
scalar FranciscoScenario.node[10].veinsmobility 	minSpeed 	11.057246223183
scalar FranciscoScenario.node[10].veinsmobility 	maxSpeed 	13.858640734048
scalar FranciscoScenario.node[10].veinsmobility 	totalDistance 	118.59735696105
scalar FranciscoScenario.node[10].veinsmobility 	totalCO2Emission 	28.355996986599
scalar FranciscoScenario.node[120].appl 	newWarningReceivedSignal:count 	2
attr description  "New Warning Received"
scalar FranciscoScenario.node[120].appl 	messageReceivedSignal:count 	2
attr description  "Message Received"
scalar FranciscoScenario.node[120].appl 	beaconReceivedSignal:count 	0
attr description  "Beacon Received"
scalar FranciscoScenario.node[120].appl 	warningReceivedSignal:count 	2
attr description  "Warning Received"
scalar FranciscoScenario.node[120].nic.phy80211p 	busyTime 	5.3317712503616e-05
scalar FranciscoScenario.node[120].nic.mac1609_4 	ReceivedUnicastPackets 	0
scalar FranciscoScenario.node[120].nic.mac1609_4 	ReceivedBroadcasts 	2
scalar FranciscoScenario.node[120].nic.mac1609_4 	SentPackets 	0
scalar FranciscoScenario.node[120].nic.mac1609_4 	SNIRLostPackets 	2
scalar FranciscoScenario.node[120].nic.mac1609_4 	RXTXLostPackets 	0
scalar FranciscoScenario.node[120].nic.mac1609_4 	TotalLostPackets 	2
scalar FranciscoScenario.node[120].nic.mac1609_4 	DroppedPacketsInMac 	0
scalar FranciscoScenario.node[120].nic.mac1609_4 	TooLittleTime 	0
scalar FranciscoScenario.node[120].nic.mac1609_4 	TimesIntoBackoff 	0
scalar FranciscoScenario.node[120].nic.mac1609_4 	SlotsBackoff 	0
scalar FranciscoScenario.node[120].nic.mac1609_4 	NumInternalContention 	0
scalar FranciscoScenario.node[120].nic.mac1609_4 	totalBusyTime 	0.00036072725
scalar FranciscoScenario.node[120].veinsmobility 	startTime 	2.3
scalar FranciscoScenario.node[120].veinsmobility 	totalTime 	9
scalar FranciscoScenario.node[120].veinsmobility 	stopTime 	11.302636712283
scalar FranciscoScenario.node[120].veinsmobility 	minSpeed 	0.26
scalar FranciscoScenario.node[120].veinsmobility 	maxSpeed 	4.9926716748797
scalar FranciscoScenario.node[120].veinsmobility 	totalDistance 	23.942837567127
scalar FranciscoScenario.node[120].veinsmobility 	totalCO2Emission 	15.074787420778
scalar FranciscoScenario.node[121].appl 	newWarningReceivedSignal:count 	2
attr description  "New Warning Received"
scalar FranciscoScenario.node[121].appl 	messageReceivedSignal:count 	2
attr description  "Message Received"
scalar FranciscoScenario.node[121].appl 	beaconReceivedSignal:count 	0
attr description  "Beacon Received"
scalar FranciscoScenario.node[121].appl 	warningReceivedSignal:count 	2
attr description  "Warning Received"
scalar FranciscoScenario.node[121].nic.phy80211p 	busyTime 	5.3916610495601e-05
scalar FranciscoScenario.node[121].nic.mac1609_4 	ReceivedUnicastPackets 	0
scalar FranciscoScenario.node[121].nic.mac1609_4 	ReceivedBroadcasts 	2
scalar FranciscoScenario.node[121].nic.mac1609_4 	SentPackets 	0
scalar FranciscoScenario.node[121].nic.mac1609_4 	SNIRLostPackets 	2
scalar FranciscoScenario.node[121].nic.mac1609_4 	RXTXLostPackets 	0
scalar FranciscoScenario.node[121].nic.mac1609_4 	TotalLostPackets 	2
scalar FranciscoScenario.node[121].nic.mac1609_4 	DroppedPacketsInMac 	0
scalar FranciscoScenario.node[121].nic.mac1609_4 	TooLittleTime 	0
scalar FranciscoScenario.node[121].nic.mac1609_4 	TimesIntoBackoff 	0
scalar FranciscoScenario.node[121].nic.mac1609_4 	SlotsBackoff 	0
scalar FranciscoScenario.node[121].nic.mac1609_4 	NumInternalContention 	0
scalar FranciscoScenario.node[121].nic.mac1609_4 	totalBusyTime 	0.000360755535
scalar FranciscoScenario.node[121].veinsmobility 	startTime 	2.4
scalar FranciscoScenario.node[121].veinsmobility 	totalTime 	8.9
scalar FranciscoScenario.node[121].veinsmobility 	stopTime 	11.302636712283
scalar FranciscoScenario.node[121].veinsmobility 	minSpeed 	0
scalar FranciscoScenario.node[121].veinsmobility 	maxSpeed 	0
scalar FranciscoScenario.node[121].veinsmobility 	totalDistance 	0
scalar FranciscoScenario.node[121].veinsmobility 	totalCO2Emission 	8.5624
scalar FranciscoScenario.node[11].appl 	newWarningReceivedSignal:count 	1
attr description  "New Warning Received"
scalar FranciscoScenario.node[11].appl 	messageReceivedSignal:count 	1
attr description  "Message Received"
scalar FranciscoScenario.node[11].appl 	beaconReceivedSignal:count 	0
attr description  "Beacon Received"
scalar FranciscoScenario.node[11].appl 	warningReceivedSignal:count 	1
attr description  "Warning Received"
scalar FranciscoScenario.node[11].nic.phy80211p 	busyTime 	3.5634261356969e-05
scalar FranciscoScenario.node[11].nic.mac1609_4 	ReceivedUnicastPackets 	0
scalar FranciscoScenario.node[11].nic.mac1609_4 	ReceivedBroadcasts 	1
scalar FranciscoScenario.node[11].nic.mac1609_4 	SentPackets 	0
scalar FranciscoScenario.node[11].nic.mac1609_4 	SNIRLostPackets 	1
scalar FranciscoScenario.node[11].nic.mac1609_4 	RXTXLostPackets 	0
scalar FranciscoScenario.node[11].nic.mac1609_4 	TotalLostPackets 	1
scalar FranciscoScenario.node[11].nic.mac1609_4 	DroppedPacketsInMac 	0
scalar FranciscoScenario.node[11].nic.mac1609_4 	TooLittleTime 	0
scalar FranciscoScenario.node[11].nic.mac1609_4 	TimesIntoBackoff 	0
scalar FranciscoScenario.node[11].nic.mac1609_4 	SlotsBackoff 	0
scalar FranciscoScenario.node[11].nic.mac1609_4 	NumInternalContention 	0
scalar FranciscoScenario.node[11].nic.mac1609_4 	totalBusyTime 	0.000119999999
scalar FranciscoScenario.node[11].veinsmobility 	startTime 	1.2
scalar FranciscoScenario.node[11].veinsmobility 	totalTime 	10.1
scalar FranciscoScenario.node[11].veinsmobility 	stopTime 	11.302636712283
scalar FranciscoScenario.node[11].veinsmobility 	minSpeed 	15.520727897547
scalar FranciscoScenario.node[11].veinsmobility 	maxSpeed 	15.649206943747
scalar FranciscoScenario.node[11].veinsmobility 	totalDistance 	157.38787789641
scalar FranciscoScenario.node[11].veinsmobility 	totalCO2Emission 	24.269720247023
scalar FranciscoScenario.node[128].appl 	newWarningReceivedSignal:count 	1
attr description  "New Warning Received"
scalar FranciscoScenario.node[128].appl 	messageReceivedSignal:count 	1
attr description  "Message Received"
scalar FranciscoScenario.node[128].appl 	beaconReceivedSignal:count 	0
attr description  "Beacon Received"
scalar FranciscoScenario.node[128].appl 	warningReceivedSignal:count 	1
attr description  "Warning Received"
scalar FranciscoScenario.node[128].nic.phy80211p 	busyTime 	4.2339806954229e-05
scalar FranciscoScenario.node[128].nic.mac1609_4 	ReceivedUnicastPackets 	0
scalar FranciscoScenario.node[128].nic.mac1609_4 	ReceivedBroadcasts 	1
scalar FranciscoScenario.node[128].nic.mac1609_4 	SentPackets 	0
scalar FranciscoScenario.node[128].nic.mac1609_4 	SNIRLostPackets 	1
scalar FranciscoScenario.node[128].nic.mac1609_4 	RXTXLostPackets 	0
scalar FranciscoScenario.node[128].nic.mac1609_4 	TotalLostPackets 	1
scalar FranciscoScenario.node[128].nic.mac1609_4 	DroppedPacketsInMac 	0
scalar FranciscoScenario.node[128].nic.mac1609_4 	TooLittleTime 	0
scalar FranciscoScenario.node[128].nic.mac1609_4 	TimesIntoBackoff 	0
scalar FranciscoScenario.node[128].nic.mac1609_4 	SlotsBackoff 	0
scalar FranciscoScenario.node[128].nic.mac1609_4 	NumInternalContention 	0
scalar FranciscoScenario.node[128].nic.mac1609_4 	totalBusyTime 	0.000119999999
scalar FranciscoScenario.node[128].veinsmobility 	startTime 	2.8
scalar FranciscoScenario.node[128].veinsmobility 	totalTime 	8.5
scalar FranciscoScenario.node[128].veinsmobility 	stopTime 	11.302636712283
scalar FranciscoScenario.node[128].veinsmobility 	minSpeed 	15.520006634651
scalar FranciscoScenario.node[128].veinsmobility 	maxSpeed 	15.64932884224
scalar FranciscoScenario.node[128].veinsmobility 	totalDistance 	132.44458660461
scalar FranciscoScenario.node[128].veinsmobility 	totalCO2Emission 	21.824041873104
scalar FranciscoScenario.node[12].appl 	newWarningReceivedSignal:count 	0
attr description  "New Warning Received"
scalar FranciscoScenario.node[12].appl 	messageReceivedSignal:count 	0
attr description  "Message Received"
scalar FranciscoScenario.node[12].appl 	beaconReceivedSignal:count 	0
attr description  "Beacon Received"
scalar FranciscoScenario.node[12].appl 	warningReceivedSignal:count 	0
attr description  "Warning Received"
scalar FranciscoScenario.node[12].nic.phy80211p 	busyTime 	0
scalar FranciscoScenario.node[12].nic.mac1609_4 	ReceivedUnicastPackets 	0
scalar FranciscoScenario.node[12].nic.mac1609_4 	ReceivedBroadcasts 	0
scalar FranciscoScenario.node[12].nic.mac1609_4 	SentPackets 	0
scalar FranciscoScenario.node[12].nic.mac1609_4 	SNIRLostPackets 	0
scalar FranciscoScenario.node[12].nic.mac1609_4 	RXTXLostPackets 	0
scalar FranciscoScenario.node[12].nic.mac1609_4 	TotalLostPackets 	0
scalar FranciscoScenario.node[12].nic.mac1609_4 	DroppedPacketsInMac 	0
scalar FranciscoScenario.node[12].nic.mac1609_4 	TooLittleTime 	0
scalar FranciscoScenario.node[12].nic.mac1609_4 	TimesIntoBackoff 	0
scalar FranciscoScenario.node[12].nic.mac1609_4 	SlotsBackoff 	0
scalar FranciscoScenario.node[12].nic.mac1609_4 	NumInternalContention 	0
scalar FranciscoScenario.node[12].nic.mac1609_4 	totalBusyTime 	0
scalar FranciscoScenario.node[12].veinsmobility 	startTime 	1.2
scalar FranciscoScenario.node[12].veinsmobility 	totalTime 	10.1
scalar FranciscoScenario.node[12].veinsmobility 	stopTime 	11.302636712283
scalar FranciscoScenario.node[12].veinsmobility 	minSpeed 	13.76174576259
scalar FranciscoScenario.node[12].veinsmobility 	maxSpeed 	13.88904177139
scalar FranciscoScenario.node[12].veinsmobility 	totalDistance 	139.59842768384
scalar FranciscoScenario.node[12].veinsmobility 	totalCO2Emission 	23.365072611818
scalar FranciscoScenario.node[13].appl 	newWarningReceivedSignal:count 	1
attr description  "New Warning Received"
scalar FranciscoScenario.node[13].appl 	messageReceivedSignal:count 	1
attr description  "Message Received"
scalar FranciscoScenario.node[13].appl 	beaconReceivedSignal:count 	0
attr description  "Beacon Received"
scalar FranciscoScenario.node[13].appl 	warningReceivedSignal:count 	1
attr description  "Warning Received"
scalar FranciscoScenario.node[13].nic.phy80211p 	busyTime 	1.187808711899e-05
scalar FranciscoScenario.node[13].nic.mac1609_4 	ReceivedUnicastPackets 	0
scalar FranciscoScenario.node[13].nic.mac1609_4 	ReceivedBroadcasts 	1
scalar FranciscoScenario.node[13].nic.mac1609_4 	SentPackets 	0
scalar FranciscoScenario.node[13].nic.mac1609_4 	SNIRLostPackets 	0
scalar FranciscoScenario.node[13].nic.mac1609_4 	RXTXLostPackets 	0
scalar FranciscoScenario.node[13].nic.mac1609_4 	TotalLostPackets 	0
scalar FranciscoScenario.node[13].nic.mac1609_4 	DroppedPacketsInMac 	0
scalar FranciscoScenario.node[13].nic.mac1609_4 	TooLittleTime 	0
scalar FranciscoScenario.node[13].nic.mac1609_4 	TimesIntoBackoff 	0
scalar FranciscoScenario.node[13].nic.mac1609_4 	SlotsBackoff 	0
scalar FranciscoScenario.node[13].nic.mac1609_4 	NumInternalContention 	0
scalar FranciscoScenario.node[13].nic.mac1609_4 	totalBusyTime 	0.000119999999
scalar FranciscoScenario.node[13].veinsmobility 	startTime 	1.2
scalar FranciscoScenario.node[13].veinsmobility 	totalTime 	10.1
scalar FranciscoScenario.node[13].veinsmobility 	stopTime 	11.302636712283
scalar FranciscoScenario.node[13].veinsmobility 	minSpeed 	3.3284897982847
scalar FranciscoScenario.node[13].veinsmobility 	maxSpeed 	13.889309693503
scalar FranciscoScenario.node[13].veinsmobility 	totalDistance 	97.280398602304
scalar FranciscoScenario.node[13].veinsmobility 	totalCO2Emission 	26.327622781254
scalar FranciscoScenario.node[14].appl 	newWarningReceivedSignal:count 	1
attr description  "New Warning Received"
scalar FranciscoScenario.node[14].appl 	messageReceivedSignal:count 	1
attr description  "Message Received"
scalar FranciscoScenario.node[14].appl 	beaconReceivedSignal:count 	0
attr description  "Beacon Received"
scalar FranciscoScenario.node[14].appl 	warningReceivedSignal:count 	1
attr description  "Warning Received"
scalar FranciscoScenario.node[14].nic.phy80211p 	busyTime 	2.3756174237979e-05
scalar FranciscoScenario.node[14].nic.mac1609_4 	ReceivedUnicastPackets 	0
scalar FranciscoScenario.node[14].nic.mac1609_4 	ReceivedBroadcasts 	1
scalar FranciscoScenario.node[14].nic.mac1609_4 	SentPackets 	0
scalar FranciscoScenario.node[14].nic.mac1609_4 	SNIRLostPackets 	0
scalar FranciscoScenario.node[14].nic.mac1609_4 	RXTXLostPackets 	0
scalar FranciscoScenario.node[14].nic.mac1609_4 	TotalLostPackets 	0
scalar FranciscoScenario.node[14].nic.mac1609_4 	DroppedPacketsInMac 	0
scalar FranciscoScenario.node[14].nic.mac1609_4 	TooLittleTime 	0
scalar FranciscoScenario.node[14].nic.mac1609_4 	TimesIntoBackoff 	0
scalar FranciscoScenario.node[14].nic.mac1609_4 	SlotsBackoff 	0
scalar FranciscoScenario.node[14].nic.mac1609_4 	NumInternalContention 	0
scalar FranciscoScenario.node[14].nic.mac1609_4 	totalBusyTime 	0.000119999999
scalar FranciscoScenario.node[14].veinsmobility 	startTime 	1.2
scalar FranciscoScenario.node[14].veinsmobility 	totalTime 	10.1
scalar FranciscoScenario.node[14].veinsmobility 	stopTime 	11.302636712283
scalar FranciscoScenario.node[14].veinsmobility 	minSpeed 	13.681061183907
scalar FranciscoScenario.node[14].veinsmobility 	maxSpeed 	27.77780668217
scalar FranciscoScenario.node[14].veinsmobility 	totalDistance 	239.562262088
scalar FranciscoScenario.node[14].veinsmobility 	totalCO2Emission 	29.46713679757
scalar FranciscoScenario.node[15].appl 	newWarningReceivedSignal:count 	0
attr description  "New Warning Received"
scalar FranciscoScenario.node[15].appl 	messageReceivedSignal:count 	0
attr description  "Message Received"
scalar FranciscoScenario.node[15].appl 	beaconReceivedSignal:count 	0
attr description  "Beacon Received"
scalar FranciscoScenario.node[15].appl 	warningReceivedSignal:count 	0
attr description  "Warning Received"
scalar FranciscoScenario.node[15].nic.phy80211p 	busyTime 	0
scalar FranciscoScenario.node[15].nic.mac1609_4 	ReceivedUnicastPackets 	0
scalar FranciscoScenario.node[15].nic.mac1609_4 	ReceivedBroadcasts 	0
scalar FranciscoScenario.node[15].nic.mac1609_4 	SentPackets 	0
scalar FranciscoScenario.node[15].nic.mac1609_4 	SNIRLostPackets 	0
scalar FranciscoScenario.node[15].nic.mac1609_4 	RXTXLostPackets 	0
scalar FranciscoScenario.node[15].nic.mac1609_4 	TotalLostPackets 	0
scalar FranciscoScenario.node[15].nic.mac1609_4 	DroppedPacketsInMac 	0
scalar FranciscoScenario.node[15].nic.mac1609_4 	TooLittleTime 	0
scalar FranciscoScenario.node[15].nic.mac1609_4 	TimesIntoBackoff 	0
scalar FranciscoScenario.node[15].nic.mac1609_4 	SlotsBackoff 	0
scalar FranciscoScenario.node[15].nic.mac1609_4 	NumInternalContention 	0
scalar FranciscoScenario.node[15].nic.mac1609_4 	totalBusyTime 	0
scalar FranciscoScenario.node[15].veinsmobility 	startTime 	1.2
scalar FranciscoScenario.node[15].veinsmobility 	totalTime 	10.1
scalar FranciscoScenario.node[15].veinsmobility 	stopTime 	11.302636712283
scalar FranciscoScenario.node[15].veinsmobility 	minSpeed 	27.651158400744
scalar FranciscoScenario.node[15].veinsmobility 	maxSpeed 	27.779699752952
scalar FranciscoScenario.node[15].veinsmobility 	totalDistance 	279.95477307655
scalar FranciscoScenario.node[15].veinsmobility 	totalCO2Emission 	46.947893024197
scalar FranciscoScenario.node[16].appl 	newWarningReceivedSignal:count 	2
attr description  "New Warning Received"
scalar FranciscoScenario.node[16].appl 	messageReceivedSignal:count 	2
attr description  "Message Received"
scalar FranciscoScenario.node[16].appl 	beaconReceivedSignal:count 	0
attr description  "Beacon Received"
scalar FranciscoScenario.node[16].appl 	warningReceivedSignal:count 	2
attr description  "Warning Received"
scalar FranciscoScenario.node[16].nic.phy80211p 	busyTime 	4.7512348475958e-05
scalar FranciscoScenario.node[16].nic.mac1609_4 	ReceivedUnicastPackets 	0
scalar FranciscoScenario.node[16].nic.mac1609_4 	ReceivedBroadcasts 	2
scalar FranciscoScenario.node[16].nic.mac1609_4 	SentPackets 	0
scalar FranciscoScenario.node[16].nic.mac1609_4 	SNIRLostPackets 	2
scalar FranciscoScenario.node[16].nic.mac1609_4 	RXTXLostPackets 	0
scalar FranciscoScenario.node[16].nic.mac1609_4 	TotalLostPackets 	2
scalar FranciscoScenario.node[16].nic.mac1609_4 	DroppedPacketsInMac 	0
scalar FranciscoScenario.node[16].nic.mac1609_4 	TooLittleTime 	0
scalar FranciscoScenario.node[16].nic.mac1609_4 	TimesIntoBackoff 	0
scalar FranciscoScenario.node[16].nic.mac1609_4 	SlotsBackoff 	0
scalar FranciscoScenario.node[16].nic.mac1609_4 	NumInternalContention 	0
scalar FranciscoScenario.node[16].nic.mac1609_4 	totalBusyTime 	0.000360616994
scalar FranciscoScenario.node[16].veinsmobility 	startTime 	1.2
scalar FranciscoScenario.node[16].veinsmobility 	totalTime 	10.1
scalar FranciscoScenario.node[16].veinsmobility 	stopTime 	11.302636712283
scalar FranciscoScenario.node[16].veinsmobility 	minSpeed 	0.00055078590519798
scalar FranciscoScenario.node[16].veinsmobility 	maxSpeed 	2.86
scalar FranciscoScenario.node[16].veinsmobility 	totalDistance 	5.5587622511398
scalar FranciscoScenario.node[16].veinsmobility 	totalCO2Emission 	12.039288176933
scalar FranciscoScenario.node[17].appl 	newWarningReceivedSignal:count 	0
attr description  "New Warning Received"
scalar FranciscoScenario.node[17].appl 	messageReceivedSignal:count 	0
attr description  "Message Received"
scalar FranciscoScenario.node[17].appl 	beaconReceivedSignal:count 	0
attr description  "Beacon Received"
scalar FranciscoScenario.node[17].appl 	warningReceivedSignal:count 	0
attr description  "Warning Received"
scalar FranciscoScenario.node[17].nic.phy80211p 	busyTime 	0
scalar FranciscoScenario.node[17].nic.mac1609_4 	ReceivedUnicastPackets 	0
scalar FranciscoScenario.node[17].nic.mac1609_4 	ReceivedBroadcasts 	0
scalar FranciscoScenario.node[17].nic.mac1609_4 	SentPackets 	0
scalar FranciscoScenario.node[17].nic.mac1609_4 	SNIRLostPackets 	0
scalar FranciscoScenario.node[17].nic.mac1609_4 	RXTXLostPackets 	0
scalar FranciscoScenario.node[17].nic.mac1609_4 	TotalLostPackets 	0
scalar FranciscoScenario.node[17].nic.mac1609_4 	DroppedPacketsInMac 	0
scalar FranciscoScenario.node[17].nic.mac1609_4 	TooLittleTime 	0
scalar FranciscoScenario.node[17].nic.mac1609_4 	TimesIntoBackoff 	0
scalar FranciscoScenario.node[17].nic.mac1609_4 	SlotsBackoff 	0
scalar FranciscoScenario.node[17].nic.mac1609_4 	NumInternalContention 	0
scalar FranciscoScenario.node[17].nic.mac1609_4 	totalBusyTime 	0
scalar FranciscoScenario.node[17].veinsmobility 	startTime 	1.2
scalar FranciscoScenario.node[17].veinsmobility 	totalTime 	10.1
scalar FranciscoScenario.node[17].veinsmobility 	stopTime 	11.302636712283
scalar FranciscoScenario.node[17].veinsmobility 	minSpeed 	27.654800745989
scalar FranciscoScenario.node[17].veinsmobility 	maxSpeed 	27.779279228777
scalar FranciscoScenario.node[17].veinsmobility 	totalDistance 	279.92749623855
scalar FranciscoScenario.node[17].veinsmobility 	totalCO2Emission 	45.402592967093
scalar FranciscoScenario.node[122].appl 	newWarningReceivedSignal:count 	0
attr description  "New Warning Received"
scalar FranciscoScenario.node[122].appl 	messageReceivedSignal:count 	0
attr description  "Message Received"
scalar FranciscoScenario.node[122].appl 	beaconReceivedSignal:count 	0
attr description  "Beacon Received"
scalar FranciscoScenario.node[122].appl 	warningReceivedSignal:count 	0
attr description  "Warning Received"
scalar FranciscoScenario.node[122].nic.phy80211p 	busyTime 	0
scalar FranciscoScenario.node[122].nic.mac1609_4 	ReceivedUnicastPackets 	0
scalar FranciscoScenario.node[122].nic.mac1609_4 	ReceivedBroadcasts 	0
scalar FranciscoScenario.node[122].nic.mac1609_4 	SentPackets 	0
scalar FranciscoScenario.node[122].nic.mac1609_4 	SNIRLostPackets 	0
scalar FranciscoScenario.node[122].nic.mac1609_4 	RXTXLostPackets 	0
scalar FranciscoScenario.node[122].nic.mac1609_4 	TotalLostPackets 	0
scalar FranciscoScenario.node[122].nic.mac1609_4 	DroppedPacketsInMac 	0
scalar FranciscoScenario.node[122].nic.mac1609_4 	TooLittleTime 	0
scalar FranciscoScenario.node[122].nic.mac1609_4 	TimesIntoBackoff 	0
scalar FranciscoScenario.node[122].nic.mac1609_4 	SlotsBackoff 	0
scalar FranciscoScenario.node[122].nic.mac1609_4 	NumInternalContention 	0
scalar FranciscoScenario.node[122].nic.mac1609_4 	totalBusyTime 	0
scalar FranciscoScenario.node[122].veinsmobility 	startTime 	2.5
scalar FranciscoScenario.node[122].veinsmobility 	totalTime 	8.8
scalar FranciscoScenario.node[122].veinsmobility 	stopTime 	11.302636712283
scalar FranciscoScenario.node[122].veinsmobility 	minSpeed 	27.650942275932
scalar FranciscoScenario.node[122].veinsmobility 	maxSpeed 	27.778093442591
scalar FranciscoScenario.node[122].veinsmobility 	totalDistance 	243.91240044734
scalar FranciscoScenario.node[122].veinsmobility 	totalCO2Emission 	40.833941112591
scalar FranciscoScenario.node[18].appl 	newWarningReceivedSignal:count 	0
attr description  "New Warning Received"
scalar FranciscoScenario.node[18].appl 	messageReceivedSignal:count 	0
attr description  "Message Received"
scalar FranciscoScenario.node[18].appl 	beaconReceivedSignal:count 	0
attr description  "Beacon Received"
scalar FranciscoScenario.node[18].appl 	warningReceivedSignal:count 	0
attr description  "Warning Received"
scalar FranciscoScenario.node[18].nic.phy80211p 	busyTime 	0
scalar FranciscoScenario.node[18].nic.mac1609_4 	ReceivedUnicastPackets 	0
scalar FranciscoScenario.node[18].nic.mac1609_4 	ReceivedBroadcasts 	0
scalar FranciscoScenario.node[18].nic.mac1609_4 	SentPackets 	0
scalar FranciscoScenario.node[18].nic.mac1609_4 	SNIRLostPackets 	0
scalar FranciscoScenario.node[18].nic.mac1609_4 	RXTXLostPackets 	0
scalar FranciscoScenario.node[18].nic.mac1609_4 	TotalLostPackets 	0
scalar FranciscoScenario.node[18].nic.mac1609_4 	DroppedPacketsInMac 	0
scalar FranciscoScenario.node[18].nic.mac1609_4 	TooLittleTime 	0
scalar FranciscoScenario.node[18].nic.mac1609_4 	TimesIntoBackoff 	0
scalar FranciscoScenario.node[18].nic.mac1609_4 	SlotsBackoff 	0
scalar FranciscoScenario.node[18].nic.mac1609_4 	NumInternalContention 	0
scalar FranciscoScenario.node[18].nic.mac1609_4 	totalBusyTime 	0
scalar FranciscoScenario.node[18].veinsmobility 	startTime 	1.2
scalar FranciscoScenario.node[18].veinsmobility 	totalTime 	10.1
scalar FranciscoScenario.node[18].veinsmobility 	stopTime 	11.302636712283
scalar FranciscoScenario.node[18].veinsmobility 	minSpeed 	3.4058987373902
scalar FranciscoScenario.node[18].veinsmobility 	maxSpeed 	11.176205268714
scalar FranciscoScenario.node[18].veinsmobility 	totalDistance 	85.116537986693
scalar FranciscoScenario.node[18].veinsmobility 	totalCO2Emission 	19.975991639929
scalar FranciscoScenario.node[19].appl 	newWarningReceivedSignal:count 	0
attr description  "New Warning Received"
scalar FranciscoScenario.node[19].appl 	messageReceivedSignal:count 	0
attr description  "Message Received"
scalar FranciscoScenario.node[19].appl 	beaconReceivedSignal:count 	0
attr description  "Beacon Received"
scalar FranciscoScenario.node[19].appl 	warningReceivedSignal:count 	0
attr description  "Warning Received"
scalar FranciscoScenario.node[19].nic.phy80211p 	busyTime 	1.187808711899e-05
scalar FranciscoScenario.node[19].nic.mac1609_4 	ReceivedUnicastPackets 	0
scalar FranciscoScenario.node[19].nic.mac1609_4 	ReceivedBroadcasts 	0
scalar FranciscoScenario.node[19].nic.mac1609_4 	SentPackets 	0
scalar FranciscoScenario.node[19].nic.mac1609_4 	SNIRLostPackets 	0
scalar FranciscoScenario.node[19].nic.mac1609_4 	RXTXLostPackets 	0
scalar FranciscoScenario.node[19].nic.mac1609_4 	TotalLostPackets 	0
scalar FranciscoScenario.node[19].nic.mac1609_4 	DroppedPacketsInMac 	0
scalar FranciscoScenario.node[19].nic.mac1609_4 	TooLittleTime 	0
scalar FranciscoScenario.node[19].nic.mac1609_4 	TimesIntoBackoff 	0
scalar FranciscoScenario.node[19].nic.mac1609_4 	SlotsBackoff 	0
scalar FranciscoScenario.node[19].nic.mac1609_4 	NumInternalContention 	0
scalar FranciscoScenario.node[19].nic.mac1609_4 	totalBusyTime 	0
scalar FranciscoScenario.node[19].veinsmobility 	startTime 	1.2
scalar FranciscoScenario.node[19].veinsmobility 	totalTime 	10.1
scalar FranciscoScenario.node[19].veinsmobility 	stopTime 	11.302636712283
scalar FranciscoScenario.node[19].veinsmobility 	minSpeed 	13.760593632434
scalar FranciscoScenario.node[19].veinsmobility 	maxSpeed 	13.889343256671
scalar FranciscoScenario.node[19].veinsmobility 	totalDistance 	139.52650705291
scalar FranciscoScenario.node[19].veinsmobility 	totalCO2Emission 	23.558115003314
scalar FranciscoScenario.node[20].appl 	newWarningReceivedSignal:count 	0
attr description  "New Warning Received"
scalar FranciscoScenario.node[20].appl 	messageReceivedSignal:count 	0
attr description  "Message Received"
scalar FranciscoScenario.node[20].appl 	beaconReceivedSignal:count 	0
attr description  "Beacon Received"
scalar FranciscoScenario.node[20].appl 	warningReceivedSignal:count 	0
attr description  "Warning Received"
scalar FranciscoScenario.node[20].nic.phy80211p 	busyTime 	0
scalar FranciscoScenario.node[20].nic.mac1609_4 	ReceivedUnicastPackets 	0
scalar FranciscoScenario.node[20].nic.mac1609_4 	ReceivedBroadcasts 	0
scalar FranciscoScenario.node[20].nic.mac1609_4 	SentPackets 	0
scalar FranciscoScenario.node[20].nic.mac1609_4 	SNIRLostPackets 	0
scalar FranciscoScenario.node[20].nic.mac1609_4 	RXTXLostPackets 	0
scalar FranciscoScenario.node[20].nic.mac1609_4 	TotalLostPackets 	0
scalar FranciscoScenario.node[20].nic.mac1609_4 	DroppedPacketsInMac 	0
scalar FranciscoScenario.node[20].nic.mac1609_4 	TooLittleTime 	0
scalar FranciscoScenario.node[20].nic.mac1609_4 	TimesIntoBackoff 	0
scalar FranciscoScenario.node[20].nic.mac1609_4 	SlotsBackoff 	0
scalar FranciscoScenario.node[20].nic.mac1609_4 	NumInternalContention 	0
scalar FranciscoScenario.node[20].nic.mac1609_4 	totalBusyTime 	0
scalar FranciscoScenario.node[20].veinsmobility 	startTime 	1.2
scalar FranciscoScenario.node[20].veinsmobility 	totalTime 	10.1
scalar FranciscoScenario.node[20].veinsmobility 	stopTime 	11.302636712283
scalar FranciscoScenario.node[20].veinsmobility 	minSpeed 	3.4107200534316
scalar FranciscoScenario.node[20].veinsmobility 	maxSpeed 	13.889285674586
scalar FranciscoScenario.node[20].veinsmobility 	totalDistance 	97.811097694296
scalar FranciscoScenario.node[20].veinsmobility 	totalCO2Emission 	27.939338558938
scalar FranciscoScenario.node[129].appl 	newWarningReceivedSignal:count 	0
attr description  "New Warning Received"
scalar FranciscoScenario.node[129].appl 	messageReceivedSignal:count 	0
attr description  "Message Received"
scalar FranciscoScenario.node[129].appl 	beaconReceivedSignal:count 	0
attr description  "Beacon Received"
scalar FranciscoScenario.node[129].appl 	warningReceivedSignal:count 	0
attr description  "Warning Received"
scalar FranciscoScenario.node[129].nic.phy80211p 	busyTime 	0
scalar FranciscoScenario.node[129].nic.mac1609_4 	ReceivedUnicastPackets 	0
scalar FranciscoScenario.node[129].nic.mac1609_4 	ReceivedBroadcasts 	0
scalar FranciscoScenario.node[129].nic.mac1609_4 	SentPackets 	0
scalar FranciscoScenario.node[129].nic.mac1609_4 	SNIRLostPackets 	0
scalar FranciscoScenario.node[129].nic.mac1609_4 	RXTXLostPackets 	0
scalar FranciscoScenario.node[129].nic.mac1609_4 	TotalLostPackets 	0
scalar FranciscoScenario.node[129].nic.mac1609_4 	DroppedPacketsInMac 	0
scalar FranciscoScenario.node[129].nic.mac1609_4 	TooLittleTime 	0
scalar FranciscoScenario.node[129].nic.mac1609_4 	TimesIntoBackoff 	0
scalar FranciscoScenario.node[129].nic.mac1609_4 	SlotsBackoff 	0
scalar FranciscoScenario.node[129].nic.mac1609_4 	NumInternalContention 	0
scalar FranciscoScenario.node[129].nic.mac1609_4 	totalBusyTime 	0
scalar FranciscoScenario.node[129].veinsmobility 	startTime 	2.8
scalar FranciscoScenario.node[129].veinsmobility 	totalTime 	8.5
scalar FranciscoScenario.node[129].veinsmobility 	stopTime 	11.302636712283
scalar FranciscoScenario.node[129].veinsmobility 	minSpeed 	3.2959325098545
scalar FranciscoScenario.node[129].veinsmobility 	maxSpeed 	13.889641459207
scalar FranciscoScenario.node[129].veinsmobility 	totalDistance 	76.139878095618
scalar FranciscoScenario.node[129].veinsmobility 	totalCO2Emission 	13.466922181236
scalar FranciscoScenario.node[168].appl 	newWarningReceivedSignal:count 	0
attr description  "New Warning Received"
scalar FranciscoScenario.node[168].appl 	messageReceivedSignal:count 	0
attr description  "Message Received"
scalar FranciscoScenario.node[168].appl 	beaconReceivedSignal:count 	0
attr description  "Beacon Received"
scalar FranciscoScenario.node[168].appl 	warningReceivedSignal:count 	0
attr description  "Warning Received"
scalar FranciscoScenario.node[168].nic.phy80211p 	busyTime 	0
scalar FranciscoScenario.node[168].nic.mac1609_4 	ReceivedUnicastPackets 	0
scalar FranciscoScenario.node[168].nic.mac1609_4 	ReceivedBroadcasts 	0
scalar FranciscoScenario.node[168].nic.mac1609_4 	SentPackets 	0
scalar FranciscoScenario.node[168].nic.mac1609_4 	SNIRLostPackets 	0
scalar FranciscoScenario.node[168].nic.mac1609_4 	RXTXLostPackets 	0
scalar FranciscoScenario.node[168].nic.mac1609_4 	TotalLostPackets 	0
scalar FranciscoScenario.node[168].nic.mac1609_4 	DroppedPacketsInMac 	0
scalar FranciscoScenario.node[168].nic.mac1609_4 	TooLittleTime 	0
scalar FranciscoScenario.node[168].nic.mac1609_4 	TimesIntoBackoff 	0
scalar FranciscoScenario.node[168].nic.mac1609_4 	SlotsBackoff 	0
scalar FranciscoScenario.node[168].nic.mac1609_4 	NumInternalContention 	0
scalar FranciscoScenario.node[168].nic.mac1609_4 	totalBusyTime 	0
scalar FranciscoScenario.node[168].veinsmobility 	startTime 	4.4
scalar FranciscoScenario.node[168].veinsmobility 	totalTime 	6.9
scalar FranciscoScenario.node[168].veinsmobility 	stopTime 	11.302636712283
[...]
scalar FranciscoScenario.node[109].veinsmobility 	totalTime 	10.1
scalar FranciscoScenario.node[109].veinsmobility 	stopTime 	11.302636712283
scalar FranciscoScenario.node[109].veinsmobility 	minSpeed 	13.761361739393
scalar FranciscoScenario.node[109].veinsmobility 	maxSpeed 	13.889960150202
scalar FranciscoScenario.node[109].veinsmobility 	totalDistance 	139.66714097858
scalar FranciscoScenario.node[109].veinsmobility 	totalCO2Emission 	23.369169204202
scalar FranciscoScenario.node[154].appl 	newWarningReceivedSignal:count 	2
attr description  "New Warning Received"
scalar FranciscoScenario.node[154].appl 	messageReceivedSignal:count 	2
attr description  "Message Received"
scalar FranciscoScenario.node[154].appl 	beaconReceivedSignal:count 	0
attr description  "Beacon Received"
scalar FranciscoScenario.node[154].appl 	warningReceivedSignal:count 	2
attr description  "Warning Received"
scalar FranciscoScenario.node[154].nic.phy80211p 	busyTime 	5.6453075938972e-05
scalar FranciscoScenario.node[154].nic.mac1609_4 	ReceivedUnicastPackets 	0
scalar FranciscoScenario.node[154].nic.mac1609_4 	ReceivedBroadcasts 	2
scalar FranciscoScenario.node[154].nic.mac1609_4 	SentPackets 	0
scalar FranciscoScenario.node[154].nic.mac1609_4 	SNIRLostPackets 	1
scalar FranciscoScenario.node[154].nic.mac1609_4 	RXTXLostPackets 	0
scalar FranciscoScenario.node[154].nic.mac1609_4 	TotalLostPackets 	1
scalar FranciscoScenario.node[154].nic.mac1609_4 	DroppedPacketsInMac 	0
scalar FranciscoScenario.node[154].nic.mac1609_4 	TooLittleTime 	0
scalar FranciscoScenario.node[154].nic.mac1609_4 	TimesIntoBackoff 	0
scalar FranciscoScenario.node[154].nic.mac1609_4 	SlotsBackoff 	0
scalar FranciscoScenario.node[154].nic.mac1609_4 	NumInternalContention 	0
scalar FranciscoScenario.node[154].nic.mac1609_4 	totalBusyTime 	0.000239999998
scalar FranciscoScenario.node[154].veinsmobility 	startTime 	2.8
scalar FranciscoScenario.node[154].veinsmobility 	totalTime 	8.5
scalar FranciscoScenario.node[154].veinsmobility 	stopTime 	11.302636712283
scalar FranciscoScenario.node[154].veinsmobility 	minSpeed 	13.761260197118
scalar FranciscoScenario.node[154].veinsmobility 	maxSpeed 	13.887871880194
scalar FranciscoScenario.node[154].veinsmobility 	totalDistance 	117.51855268656
scalar FranciscoScenario.node[154].veinsmobility 	totalCO2Emission 	19.817480591696
scalar FranciscoScenario.node[155].appl 	newWarningReceivedSignal:count 	0
attr description  "New Warning Received"
scalar FranciscoScenario.node[155].appl 	messageReceivedSignal:count 	0
attr description  "Message Received"
scalar FranciscoScenario.node[155].appl 	beaconReceivedSignal:count 	0
attr description  "Beacon Received"
scalar FranciscoScenario.node[155].appl 	warningReceivedSignal:count 	0
attr description  "Warning Received"
scalar FranciscoScenario.node[155].nic.phy80211p 	busyTime 	0
scalar FranciscoScenario.node[155].nic.mac1609_4 	ReceivedUnicastPackets 	0
scalar FranciscoScenario.node[155].nic.mac1609_4 	ReceivedBroadcasts 	0
scalar FranciscoScenario.node[155].nic.mac1609_4 	SentPackets 	0
scalar FranciscoScenario.node[155].nic.mac1609_4 	SNIRLostPackets 	0
scalar FranciscoScenario.node[155].nic.mac1609_4 	RXTXLostPackets 	0
scalar FranciscoScenario.node[155].nic.mac1609_4 	TotalLostPackets 	0
scalar FranciscoScenario.node[155].nic.mac1609_4 	DroppedPacketsInMac 	0
scalar FranciscoScenario.node[155].nic.mac1609_4 	TooLittleTime 	0
scalar FranciscoScenario.node[155].nic.mac1609_4 	TimesIntoBackoff 	0
scalar FranciscoScenario.node[155].nic.mac1609_4 	SlotsBackoff 	0
scalar FranciscoScenario.node[155].nic.mac1609_4 	NumInternalContention 	0
scalar FranciscoScenario.node[155].nic.mac1609_4 	totalBusyTime 	0
scalar FranciscoScenario.node[155].veinsmobility 	startTime 	2.8
scalar FranciscoScenario.node[155].veinsmobility 	totalTime 	8.5
scalar FranciscoScenario.node[155].veinsmobility 	stopTime 	11.302636712283
scalar FranciscoScenario.node[155].veinsmobility 	minSpeed 	3.3267057702344
scalar FranciscoScenario.node[155].veinsmobility 	maxSpeed 	13.887887137013
scalar FranciscoScenario.node[155].veinsmobility 	totalDistance 	75.439891260295
scalar FranciscoScenario.node[155].veinsmobility 	totalCO2Emission 	12.53233293626
scalar FranciscoScenario.node[110].appl 	newWarningReceivedSignal:count 	2
attr description  "New Warning Received"
scalar FranciscoScenario.node[110].appl 	messageReceivedSignal:count 	2
attr description  "Message Received"
scalar FranciscoScenario.node[110].appl 	beaconReceivedSignal:count 	0
attr description  "Beacon Received"
scalar FranciscoScenario.node[110].appl 	warningReceivedSignal:count 	2
attr description  "Warning Received"
scalar FranciscoScenario.node[110].nic.phy80211p 	busyTime 	2.3756174237979e-05
scalar FranciscoScenario.node[110].nic.mac1609_4 	ReceivedUnicastPackets 	0
scalar FranciscoScenario.node[110].nic.mac1609_4 	ReceivedBroadcasts 	2
scalar FranciscoScenario.node[110].nic.mac1609_4 	SentPackets 	1
scalar FranciscoScenario.node[110].nic.mac1609_4 	SNIRLostPackets 	0
scalar FranciscoScenario.node[110].nic.mac1609_4 	RXTXLostPackets 	1
scalar FranciscoScenario.node[110].nic.mac1609_4 	TotalLostPackets 	1
scalar FranciscoScenario.node[110].nic.mac1609_4 	DroppedPacketsInMac 	0
scalar FranciscoScenario.node[110].nic.mac1609_4 	TooLittleTime 	0
scalar FranciscoScenario.node[110].nic.mac1609_4 	TimesIntoBackoff 	2
scalar FranciscoScenario.node[110].nic.mac1609_4 	SlotsBackoff 	6
scalar FranciscoScenario.node[110].nic.mac1609_4 	NumInternalContention 	0
scalar FranciscoScenario.node[110].nic.mac1609_4 	totalBusyTime 	0.000362114309
scalar FranciscoScenario.node[110].veinsmobility 	startTime 	1.2
scalar FranciscoScenario.node[110].veinsmobility 	totalTime 	10.1
scalar FranciscoScenario.node[110].veinsmobility 	stopTime 	11.302636712283
scalar FranciscoScenario.node[110].veinsmobility 	minSpeed 	3.4428777250433
scalar FranciscoScenario.node[110].veinsmobility 	maxSpeed 	13.888893493533
scalar FranciscoScenario.node[110].veinsmobility 	totalDistance 	97.658939999971
scalar FranciscoScenario.node[110].veinsmobility 	totalCO2Emission 	26.711547507402
scalar FranciscoScenario.node[111].appl 	newWarningReceivedSignal:count 	2
attr description  "New Warning Received"
scalar FranciscoScenario.node[111].appl 	messageReceivedSignal:count 	2
attr description  "Message Received"
scalar FranciscoScenario.node[111].appl 	beaconReceivedSignal:count 	0
attr description  "Beacon Received"
scalar FranciscoScenario.node[111].appl 	warningReceivedSignal:count 	2
attr description  "Warning Received"
scalar FranciscoScenario.node[111].nic.phy80211p 	busyTime 	4.7512348475958e-05
scalar FranciscoScenario.node[111].nic.mac1609_4 	ReceivedUnicastPackets 	0
scalar FranciscoScenario.node[111].nic.mac1609_4 	ReceivedBroadcasts 	2
scalar FranciscoScenario.node[111].nic.mac1609_4 	SentPackets 	0
scalar FranciscoScenario.node[111].nic.mac1609_4 	SNIRLostPackets 	2
scalar FranciscoScenario.node[111].nic.mac1609_4 	RXTXLostPackets 	0
scalar FranciscoScenario.node[111].nic.mac1609_4 	TotalLostPackets 	2
scalar FranciscoScenario.node[111].nic.mac1609_4 	DroppedPacketsInMac 	0
scalar FranciscoScenario.node[111].nic.mac1609_4 	TooLittleTime 	0
scalar FranciscoScenario.node[111].nic.mac1609_4 	TimesIntoBackoff 	0
scalar FranciscoScenario.node[111].nic.mac1609_4 	SlotsBackoff 	0
scalar FranciscoScenario.node[111].nic.mac1609_4 	NumInternalContention 	0
scalar FranciscoScenario.node[111].nic.mac1609_4 	totalBusyTime 	0.000360876683
scalar FranciscoScenario.node[111].veinsmobility 	startTime 	1.2
scalar FranciscoScenario.node[111].veinsmobility 	totalTime 	10.1
scalar FranciscoScenario.node[111].veinsmobility 	stopTime 	11.302636712283
scalar FranciscoScenario.node[111].veinsmobility 	minSpeed 	13.764797831818
scalar FranciscoScenario.node[111].veinsmobility 	maxSpeed 	13.889741218607
scalar FranciscoScenario.node[111].veinsmobility 	totalDistance 	139.61945826999
scalar FranciscoScenario.node[111].veinsmobility 	totalCO2Emission 	23.307618937583
scalar FranciscoScenario.node[112].appl 	newWarningReceivedSignal:count 	2
attr description  "New Warning Received"
scalar FranciscoScenario.node[112].appl 	messageReceivedSignal:count 	2
attr description  "Message Received"
scalar FranciscoScenario.node[112].appl 	beaconReceivedSignal:count 	0
attr description  "Beacon Received"
scalar FranciscoScenario.node[112].appl 	warningReceivedSignal:count 	2
attr description  "Warning Received"
scalar FranciscoScenario.node[112].nic.phy80211p 	busyTime 	4.7512348475958e-05
scalar FranciscoScenario.node[112].nic.mac1609_4 	ReceivedUnicastPackets 	0
scalar FranciscoScenario.node[112].nic.mac1609_4 	ReceivedBroadcasts 	2
scalar FranciscoScenario.node[112].nic.mac1609_4 	SentPackets 	0
scalar FranciscoScenario.node[112].nic.mac1609_4 	SNIRLostPackets 	2
scalar FranciscoScenario.node[112].nic.mac1609_4 	RXTXLostPackets 	0
scalar FranciscoScenario.node[112].nic.mac1609_4 	TotalLostPackets 	2
scalar FranciscoScenario.node[112].nic.mac1609_4 	DroppedPacketsInMac 	0
scalar FranciscoScenario.node[112].nic.mac1609_4 	TooLittleTime 	0
scalar FranciscoScenario.node[112].nic.mac1609_4 	TimesIntoBackoff 	0
scalar FranciscoScenario.node[112].nic.mac1609_4 	SlotsBackoff 	0
scalar FranciscoScenario.node[112].nic.mac1609_4 	NumInternalContention 	0
scalar FranciscoScenario.node[112].nic.mac1609_4 	totalBusyTime 	0.000360840943
scalar FranciscoScenario.node[112].veinsmobility 	startTime 	1.2
scalar FranciscoScenario.node[112].veinsmobility 	totalTime 	10.1
scalar FranciscoScenario.node[112].veinsmobility 	stopTime 	11.302636712283
scalar FranciscoScenario.node[112].veinsmobility 	minSpeed 	13.760093861592
scalar FranciscoScenario.node[112].veinsmobility 	maxSpeed 	13.889533112932
scalar FranciscoScenario.node[112].veinsmobility 	totalDistance 	139.59180660073
scalar FranciscoScenario.node[112].veinsmobility 	totalCO2Emission 	23.481735369455
scalar FranciscoScenario.node[156].appl 	newWarningReceivedSignal:count 	2
attr description  "New Warning Received"
scalar FranciscoScenario.node[156].appl 	messageReceivedSignal:count 	2
attr description  "Message Received"
scalar FranciscoScenario.node[156].appl 	beaconReceivedSignal:count 	0
attr description  "Beacon Received"
scalar FranciscoScenario.node[156].appl 	warningReceivedSignal:count 	2
attr description  "Warning Received"
scalar FranciscoScenario.node[156].nic.phy80211p 	busyTime 	5.6453075938972e-05
scalar FranciscoScenario.node[156].nic.mac1609_4 	ReceivedUnicastPackets 	0
scalar FranciscoScenario.node[156].nic.mac1609_4 	ReceivedBroadcasts 	2
scalar FranciscoScenario.node[156].nic.mac1609_4 	SentPackets 	0
scalar FranciscoScenario.node[156].nic.mac1609_4 	SNIRLostPackets 	2
scalar FranciscoScenario.node[156].nic.mac1609_4 	RXTXLostPackets 	0
scalar FranciscoScenario.node[156].nic.mac1609_4 	TotalLostPackets 	2
scalar FranciscoScenario.node[156].nic.mac1609_4 	DroppedPacketsInMac 	0
scalar FranciscoScenario.node[156].nic.mac1609_4 	TooLittleTime 	0
scalar FranciscoScenario.node[156].nic.mac1609_4 	TimesIntoBackoff 	0
scalar FranciscoScenario.node[156].nic.mac1609_4 	SlotsBackoff 	0
scalar FranciscoScenario.node[156].nic.mac1609_4 	NumInternalContention 	0
scalar FranciscoScenario.node[156].nic.mac1609_4 	totalBusyTime 	0.000360884678
scalar FranciscoScenario.node[156].veinsmobility 	startTime 	2.8
scalar FranciscoScenario.node[156].veinsmobility 	totalTime 	8.5
scalar FranciscoScenario.node[156].veinsmobility 	stopTime 	11.302636712283
scalar FranciscoScenario.node[156].veinsmobility 	minSpeed 	13.761695631605
scalar FranciscoScenario.node[156].veinsmobility 	maxSpeed 	13.887530912145
scalar FranciscoScenario.node[156].veinsmobility 	totalDistance 	117.47470143736
scalar FranciscoScenario.node[156].veinsmobility 	totalCO2Emission 	19.739682200729
scalar FranciscoScenario.node[113].appl 	newWarningReceivedSignal:count 	0
attr description  "New Warning Received"
scalar FranciscoScenario.node[113].appl 	messageReceivedSignal:count 	0
attr description  "Message Received"
scalar FranciscoScenario.node[113].appl 	beaconReceivedSignal:count 	0
attr description  "Beacon Received"
scalar FranciscoScenario.node[113].appl 	warningReceivedSignal:count 	0
attr description  "Warning Received"
scalar FranciscoScenario.node[113].nic.phy80211p 	busyTime 	0
scalar FranciscoScenario.node[113].nic.mac1609_4 	ReceivedUnicastPackets 	0
scalar FranciscoScenario.node[113].nic.mac1609_4 	ReceivedBroadcasts 	0
scalar FranciscoScenario.node[113].nic.mac1609_4 	SentPackets 	0
scalar FranciscoScenario.node[113].nic.mac1609_4 	SNIRLostPackets 	0
scalar FranciscoScenario.node[113].nic.mac1609_4 	RXTXLostPackets 	0
scalar FranciscoScenario.node[113].nic.mac1609_4 	TotalLostPackets 	0
scalar FranciscoScenario.node[113].nic.mac1609_4 	DroppedPacketsInMac 	0
scalar FranciscoScenario.node[113].nic.mac1609_4 	TooLittleTime 	0
scalar FranciscoScenario.node[113].nic.mac1609_4 	TimesIntoBackoff 	0
scalar FranciscoScenario.node[113].nic.mac1609_4 	SlotsBackoff 	0
scalar FranciscoScenario.node[113].nic.mac1609_4 	NumInternalContention 	0
scalar FranciscoScenario.node[113].nic.mac1609_4 	totalBusyTime 	0
scalar FranciscoScenario.node[113].veinsmobility 	startTime 	1.2
scalar FranciscoScenario.node[113].veinsmobility 	totalTime 	10.1
scalar FranciscoScenario.node[113].veinsmobility 	stopTime 	11.302636712283
scalar FranciscoScenario.node[113].veinsmobility 	minSpeed 	3.535124210256
scalar FranciscoScenario.node[113].veinsmobility 	maxSpeed 	13.889820163865
scalar FranciscoScenario.node[113].veinsmobility 	totalDistance 	98.298211389106
scalar FranciscoScenario.node[113].veinsmobility 	totalCO2Emission 	28.018655569024
scalar FranciscoScenario.node[157].appl 	newWarningReceivedSignal:count 	0
attr description  "New Warning Received"
scalar FranciscoScenario.node[157].appl 	messageReceivedSignal:count 	0
attr description  "Message Received"
scalar FranciscoScenario.node[157].appl 	beaconReceivedSignal:count 	0
attr description  "Beacon Received"
scalar FranciscoScenario.node[157].appl 	warningReceivedSignal:count 	0
attr description  "Warning Received"
scalar FranciscoScenario.node[157].nic.phy80211p 	busyTime 	0
scalar FranciscoScenario.node[157].nic.mac1609_4 	ReceivedUnicastPackets 	0
scalar FranciscoScenario.node[157].nic.mac1609_4 	ReceivedBroadcasts 	0
scalar FranciscoScenario.node[157].nic.mac1609_4 	SentPackets 	0
scalar FranciscoScenario.node[157].nic.mac1609_4 	SNIRLostPackets 	0
scalar FranciscoScenario.node[157].nic.mac1609_4 	RXTXLostPackets 	0
scalar FranciscoScenario.node[157].nic.mac1609_4 	TotalLostPackets 	0
scalar FranciscoScenario.node[157].nic.mac1609_4 	DroppedPacketsInMac 	0
scalar FranciscoScenario.node[157].nic.mac1609_4 	TooLittleTime 	0
scalar FranciscoScenario.node[157].nic.mac1609_4 	TimesIntoBackoff 	0
scalar FranciscoScenario.node[157].nic.mac1609_4 	SlotsBackoff 	0
scalar FranciscoScenario.node[157].nic.mac1609_4 	NumInternalContention 	0
scalar FranciscoScenario.node[157].nic.mac1609_4 	totalBusyTime 	0
scalar FranciscoScenario.node[157].veinsmobility 	startTime 	2.8
scalar FranciscoScenario.node[157].veinsmobility 	totalTime 	8.5
scalar FranciscoScenario.node[157].veinsmobility 	stopTime 	11.302636712283
scalar FranciscoScenario.node[157].veinsmobility 	minSpeed 	3.2938182908547
scalar FranciscoScenario.node[157].veinsmobility 	maxSpeed 	13.879056849407
scalar FranciscoScenario.node[157].veinsmobility 	totalDistance 	76.251653249731
scalar FranciscoScenario.node[157].veinsmobility 	totalCO2Emission 	13.501001932043
scalar FranciscoScenario.node[114].appl 	newWarningReceivedSignal:count 	0
attr description  "New Warning Received"
scalar FranciscoScenario.node[114].appl 	messageReceivedSignal:count 	0
attr description  "Message Received"
scalar FranciscoScenario.node[114].appl 	beaconReceivedSignal:count 	0
attr description  "Beacon Received"
scalar FranciscoScenario.node[114].appl 	warningReceivedSignal:count 	0
attr description  "Warning Received"
scalar FranciscoScenario.node[114].nic.phy80211p 	busyTime 	1.187808711899e-05
scalar FranciscoScenario.node[114].nic.mac1609_4 	ReceivedUnicastPackets 	0
scalar FranciscoScenario.node[114].nic.mac1609_4 	ReceivedBroadcasts 	0
scalar FranciscoScenario.node[114].nic.mac1609_4 	SentPackets 	0
scalar FranciscoScenario.node[114].nic.mac1609_4 	SNIRLostPackets 	0
scalar FranciscoScenario.node[114].nic.mac1609_4 	RXTXLostPackets 	0
scalar FranciscoScenario.node[114].nic.mac1609_4 	TotalLostPackets 	0
scalar FranciscoScenario.node[114].nic.mac1609_4 	DroppedPacketsInMac 	0
scalar FranciscoScenario.node[114].nic.mac1609_4 	TooLittleTime 	0
scalar FranciscoScenario.node[114].nic.mac1609_4 	TimesIntoBackoff 	0
scalar FranciscoScenario.node[114].nic.mac1609_4 	SlotsBackoff 	0
scalar FranciscoScenario.node[114].nic.mac1609_4 	NumInternalContention 	0
scalar FranciscoScenario.node[114].nic.mac1609_4 	totalBusyTime 	0
scalar FranciscoScenario.node[114].veinsmobility 	startTime 	1.2
scalar FranciscoScenario.node[114].veinsmobility 	totalTime 	10.1
scalar FranciscoScenario.node[114].veinsmobility 	stopTime 	11.302636712283
scalar FranciscoScenario.node[114].veinsmobility 	minSpeed 	11.055724972212
scalar FranciscoScenario.node[114].veinsmobility 	maxSpeed 	13.884753807571
scalar FranciscoScenario.node[114].veinsmobility 	totalDistance 	118.14071528886
scalar FranciscoScenario.node[114].veinsmobility 	totalCO2Emission 	28.929980665786
scalar FranciscoScenario.node[115].appl 	newWarningReceivedSignal:count 	2
attr description  "New Warning Received"
scalar FranciscoScenario.node[115].appl 	messageReceivedSignal:count 	2
attr description  "Message Received"
scalar FranciscoScenario.node[115].appl 	beaconReceivedSignal:count 	0
attr description  "Beacon Received"
scalar FranciscoScenario.node[115].appl 	warningReceivedSignal:count 	2
attr description  "Warning Received"
scalar FranciscoScenario.node[115].nic.phy80211p 	busyTime 	4.7512348475958e-05
scalar FranciscoScenario.node[115].nic.mac1609_4 	ReceivedUnicastPackets 	0
scalar FranciscoScenario.node[115].nic.mac1609_4 	ReceivedBroadcasts 	2
scalar FranciscoScenario.node[115].nic.mac1609_4 	SentPackets 	0
scalar FranciscoScenario.node[115].nic.mac1609_4 	SNIRLostPackets 	1
scalar FranciscoScenario.node[115].nic.mac1609_4 	RXTXLostPackets 	0
scalar FranciscoScenario.node[115].nic.mac1609_4 	TotalLostPackets 	1
scalar FranciscoScenario.node[115].nic.mac1609_4 	DroppedPacketsInMac 	0
scalar FranciscoScenario.node[115].nic.mac1609_4 	TooLittleTime 	0
scalar FranciscoScenario.node[115].nic.mac1609_4 	TimesIntoBackoff 	0
scalar FranciscoScenario.node[115].nic.mac1609_4 	SlotsBackoff 	0
scalar FranciscoScenario.node[115].nic.mac1609_4 	NumInternalContention 	0
scalar FranciscoScenario.node[115].nic.mac1609_4 	totalBusyTime 	0.000239999998
scalar FranciscoScenario.node[115].veinsmobility 	startTime 	1.2
scalar FranciscoScenario.node[115].veinsmobility 	totalTime 	10.1
scalar FranciscoScenario.node[115].veinsmobility 	stopTime 	11.302636712283
scalar FranciscoScenario.node[115].veinsmobility 	minSpeed 	13.760962658601
scalar FranciscoScenario.node[115].veinsmobility 	maxSpeed 	13.889149790469
scalar FranciscoScenario.node[115].veinsmobility 	totalDistance 	139.64475289773
scalar FranciscoScenario.node[115].veinsmobility 	totalCO2Emission 	23.192954175601
scalar FranciscoScenario.stats 	percentOfInformedVehiclesSignal:count 	162
attr description  "Percent Of Informed Vehicles"
scalar FranciscoScenario.stats 	accidentStartTimeSignal:count 	1
attr description  "Accident Start Time"
scalar FranciscoScenario.stats 	allMessagesReceivedSignal:count 	160
attr description  "All Messages Received"
scalar FranciscoScenario.stats 	allWarningsReceivedSignal:count 	160
attr description  "All Warnings Received"
scalar FranciscoScenario.stats 	allNewWarningsReceivedSignal:count 	162
attr description  "All New Warnings Received"
scalar FranciscoScenario.stats 	allBeaconsReceivedSignal:count 	0
attr description  "All Beacons Received"
