version 2
run Flooding-0-20140919-08:45:11-23995
attr configname Flooding
attr datetime 20140919-08:45:11
attr experiment Flooding
attr inifile omnetpp.ini
attr iterationvars ""
attr iterationvars2 $repetition=0
attr measurement ""
attr network src.modules.scenario.FranciscoScenario
attr processid 23995
attr repetition 0
attr replication #0
attr resultdir results
attr runnumber 0
attr seedset 0

scalar FranciscoScenario.node[0].appl 	newWarningReceivedSignal:count 	1
attr description  "New Warning Received"
scalar FranciscoScenario.node[0].appl 	messageReceivedSignal:count 	3
attr description  "Message Received"
scalar FranciscoScenario.node[0].appl 	beaconReceivedSignal:count 	0
attr description  "Beacon Received"
scalar FranciscoScenario.node[0].appl 	warningReceivedSignal:count 	3
attr description  "Warning Received"
scalar FranciscoScenario.node[0].nic.phy80211p 	busyTime 	7.5640996327617e-05
scalar FranciscoScenario.node[0].nic.mac1609_4 	ReceivedUnicastPackets 	0
scalar FranciscoScenario.node[0].nic.mac1609_4 	ReceivedBroadcasts 	3
scalar FranciscoScenario.node[0].nic.mac1609_4 	SentPackets 	0
scalar FranciscoScenario.node[0].nic.mac1609_4 	SNIRLostPackets 	2
scalar FranciscoScenario.node[0].nic.mac1609_4 	RXTXLostPackets 	0
scalar FranciscoScenario.node[0].nic.mac1609_4 	TotalLostPackets 	2
scalar FranciscoScenario.node[0].nic.mac1609_4 	DroppedPacketsInMac 	0
scalar FranciscoScenario.node[0].nic.mac1609_4 	TooLittleTime 	0
scalar FranciscoScenario.node[0].nic.mac1609_4 	TimesIntoBackoff 	0
scalar FranciscoScenario.node[0].nic.mac1609_4 	SlotsBackoff 	0
scalar FranciscoScenario.node[0].nic.mac1609_4 	NumInternalContention 	0
scalar FranciscoScenario.node[0].nic.mac1609_4 	totalBusyTime 	0.000518384198
scalar FranciscoScenario.node[0].veinsmobility 	startTime 	0.1
scalar FranciscoScenario.node[0].veinsmobility 	totalTime 	11.1
scalar FranciscoScenario.node[0].veinsmobility 	stopTime 	11.20508895681
scalar FranciscoScenario.node[0].veinsmobility 	minSpeed 	0.25286542447004
scalar FranciscoScenario.node[0].veinsmobility 	maxSpeed 	13.887498742575
scalar FranciscoScenario.node[0].veinsmobility 	totalDistance 	106.87718683016
scalar FranciscoScenario.node[0].veinsmobility 	totalCO2Emission 	43.307506077168
scalar FranciscoScenario.node[1].appl 	newWarningReceivedSignal:count 	1
attr description  "New Warning Received"
scalar FranciscoScenario.node[1].appl 	messageReceivedSignal:count 	2
attr description  "Message Received"
scalar FranciscoScenario.node[1].appl 	beaconReceivedSignal:count 	0
attr description  "Beacon Received"
scalar FranciscoScenario.node[1].appl 	warningReceivedSignal:count 	2
attr description  "Warning Received"
scalar FranciscoScenario.node[1].nic.phy80211p 	busyTime 	5.937602306763e-05
scalar FranciscoScenario.node[1].nic.mac1609_4 	ReceivedUnicastPackets 	0
scalar FranciscoScenario.node[1].nic.mac1609_4 	ReceivedBroadcasts 	2
scalar FranciscoScenario.node[1].nic.mac1609_4 	SentPackets 	0
scalar FranciscoScenario.node[1].nic.mac1609_4 	SNIRLostPackets 	2
scalar FranciscoScenario.node[1].nic.mac1609_4 	RXTXLostPackets 	0
scalar FranciscoScenario.node[1].nic.mac1609_4 	TotalLostPackets 	2
scalar FranciscoScenario.node[1].nic.mac1609_4 	DroppedPacketsInMac 	0
scalar FranciscoScenario.node[1].nic.mac1609_4 	TooLittleTime 	0
scalar FranciscoScenario.node[1].nic.mac1609_4 	TimesIntoBackoff 	0
scalar FranciscoScenario.node[1].nic.mac1609_4 	SlotsBackoff 	0
scalar FranciscoScenario.node[1].nic.mac1609_4 	NumInternalContention 	0
scalar FranciscoScenario.node[1].nic.mac1609_4 	totalBusyTime 	0.000361060791
scalar FranciscoScenario.node[1].veinsmobility 	startTime 	1.1
scalar FranciscoScenario.node[1].veinsmobility 	totalTime 	10.1
scalar FranciscoScenario.node[1].veinsmobility 	stopTime 	11.20508895681
scalar FranciscoScenario.node[1].veinsmobility 	minSpeed 	0.2550030377931
scalar FranciscoScenario.node[1].veinsmobility 	maxSpeed 	13.887622917856
scalar FranciscoScenario.node[1].veinsmobility 	totalDistance 	91.691578997547
scalar FranciscoScenario.node[1].veinsmobility 	totalCO2Emission 	41.062578781125
scalar FranciscoScenario.node[79].appl 	newWarningReceivedSignal:count 	1
attr description  "New Warning Received"
scalar FranciscoScenario.node[79].appl 	messageReceivedSignal:count 	3
attr description  "Message Received"
scalar FranciscoScenario.node[79].appl 	beaconReceivedSignal:count 	0
attr description  "Beacon Received"
scalar FranciscoScenario.node[79].appl 	warningReceivedSignal:count 	3
attr description  "Warning Received"
scalar FranciscoScenario.node[79].nic.phy80211p 	busyTime 	0.00032576562708507
scalar FranciscoScenario.node[79].nic.mac1609_4 	ReceivedUnicastPackets 	0
scalar FranciscoScenario.node[79].nic.mac1609_4 	ReceivedBroadcasts 	3
scalar FranciscoScenario.node[79].nic.mac1609_4 	SentPackets 	0
scalar FranciscoScenario.node[79].nic.mac1609_4 	SNIRLostPackets 	0
scalar FranciscoScenario.node[79].nic.mac1609_4 	RXTXLostPackets 	0
scalar FranciscoScenario.node[79].nic.mac1609_4 	TotalLostPackets 	0
scalar FranciscoScenario.node[79].nic.mac1609_4 	DroppedPacketsInMac 	0
scalar FranciscoScenario.node[79].nic.mac1609_4 	TooLittleTime 	0
scalar FranciscoScenario.node[79].nic.mac1609_4 	TimesIntoBackoff 	0
scalar FranciscoScenario.node[79].nic.mac1609_4 	SlotsBackoff 	0
scalar FranciscoScenario.node[79].nic.mac1609_4 	NumInternalContention 	0
scalar FranciscoScenario.node[79].nic.mac1609_4 	totalBusyTime 	0.000359999997
scalar FranciscoScenario.node[79].veinsmobility 	startTime 	10.1
scalar FranciscoScenario.node[79].veinsmobility 	totalTime 	1.1
scalar FranciscoScenario.node[79].veinsmobility 	stopTime 	11.20508895681
scalar FranciscoScenario.node[79].veinsmobility 	minSpeed 	0.25015888548736
scalar FranciscoScenario.node[79].veinsmobility 	maxSpeed 	2.5334996051767
scalar FranciscoScenario.node[79].veinsmobility 	totalDistance 	1.5473609081989
scalar FranciscoScenario.node[79].veinsmobility 	totalCO2Emission 	2.0133962163638
scalar FranciscoScenario.node[80].appl 	newWarningReceivedSignal:count 	0
attr description  "New Warning Received"
scalar FranciscoScenario.node[80].appl 	messageReceivedSignal:count 	0
attr description  "Message Received"
scalar FranciscoScenario.node[80].appl 	beaconReceivedSignal:count 	0
attr description  "Beacon Received"
scalar FranciscoScenario.node[80].appl 	warningReceivedSignal:count 	0
attr description  "Warning Received"
scalar FranciscoScenario.node[80].nic.phy80211p 	busyTime 	0
scalar FranciscoScenario.node[80].nic.mac1609_4 	ReceivedUnicastPackets 	0
scalar FranciscoScenario.node[80].nic.mac1609_4 	ReceivedBroadcasts 	0
scalar FranciscoScenario.node[80].nic.mac1609_4 	SentPackets 	0
scalar FranciscoScenario.node[80].nic.mac1609_4 	SNIRLostPackets 	0
scalar FranciscoScenario.node[80].nic.mac1609_4 	RXTXLostPackets 	0
scalar FranciscoScenario.node[80].nic.mac1609_4 	TotalLostPackets 	0
scalar FranciscoScenario.node[80].nic.mac1609_4 	DroppedPacketsInMac 	0
scalar FranciscoScenario.node[80].nic.mac1609_4 	TooLittleTime 	0
scalar FranciscoScenario.node[80].nic.mac1609_4 	TimesIntoBackoff 	0
scalar FranciscoScenario.node[80].nic.mac1609_4 	SlotsBackoff 	0
scalar FranciscoScenario.node[80].nic.mac1609_4 	NumInternalContention 	0
scalar FranciscoScenario.node[80].nic.mac1609_4 	totalBusyTime 	0
scalar FranciscoScenario.node[80].veinsmobility 	startTime 	11.1
scalar FranciscoScenario.node[80].veinsmobility 	totalTime 	0.1
scalar FranciscoScenario.node[80].veinsmobility 	stopTime 	11.20508895681
scalar FranciscoScenario.node[80].veinsmobility 	minSpeed 	0.25609581947629
scalar FranciscoScenario.node[80].veinsmobility 	maxSpeed 	0.25609581947629
scalar FranciscoScenario.node[80].veinsmobility 	totalDistance 	0.025609936948961
scalar FranciscoScenario.node[80].veinsmobility 	totalCO2Emission 	0
scalar FranciscoScenario.node[54].appl 	newWarningReceivedSignal:count 	1
attr description  "New Warning Received"
scalar FranciscoScenario.node[54].appl 	messageReceivedSignal:count 	2
attr description  "Message Received"
scalar FranciscoScenario.node[54].appl 	beaconReceivedSignal:count 	0
attr description  "Beacon Received"
scalar FranciscoScenario.node[54].appl 	warningReceivedSignal:count 	2
attr description  "Warning Received"
scalar FranciscoScenario.node[54].nic.phy80211p 	busyTime 	2.6358885579091e-05
scalar FranciscoScenario.node[54].nic.mac1609_4 	ReceivedUnicastPackets 	0
scalar FranciscoScenario.node[54].nic.mac1609_4 	ReceivedBroadcasts 	2
scalar FranciscoScenario.node[54].nic.mac1609_4 	SentPackets 	0
scalar FranciscoScenario.node[54].nic.mac1609_4 	SNIRLostPackets 	0
scalar FranciscoScenario.node[54].nic.mac1609_4 	RXTXLostPackets 	0
scalar FranciscoScenario.node[54].nic.mac1609_4 	TotalLostPackets 	0
scalar FranciscoScenario.node[54].nic.mac1609_4 	DroppedPacketsInMac 	0
scalar FranciscoScenario.node[54].nic.mac1609_4 	TooLittleTime 	0
scalar FranciscoScenario.node[54].nic.mac1609_4 	TimesIntoBackoff 	0
scalar FranciscoScenario.node[54].nic.mac1609_4 	SlotsBackoff 	0
scalar FranciscoScenario.node[54].nic.mac1609_4 	NumInternalContention 	0
scalar FranciscoScenario.node[54].nic.mac1609_4 	totalBusyTime 	0.000239999998
scalar FranciscoScenario.node[54].veinsmobility 	startTime 	2.1
scalar FranciscoScenario.node[54].veinsmobility 	totalTime 	9.1
scalar FranciscoScenario.node[54].veinsmobility 	stopTime 	11.20508895681
scalar FranciscoScenario.node[54].veinsmobility 	minSpeed 	0.24776208983548
scalar FranciscoScenario.node[54].veinsmobility 	maxSpeed 	13.6107904741
scalar FranciscoScenario.node[54].veinsmobility 	totalDistance 	70.859250869504
scalar FranciscoScenario.node[54].veinsmobility 	totalCO2Emission 	35.11383740343
scalar FranciscoScenario.node[67].appl 	newWarningReceivedSignal:count 	1
attr description  "New Warning Received"
scalar FranciscoScenario.node[67].appl 	messageReceivedSignal:count 	2
attr description  "Message Received"
scalar FranciscoScenario.node[67].appl 	beaconReceivedSignal:count 	0
attr description  "Beacon Received"
scalar FranciscoScenario.node[67].appl 	warningReceivedSignal:count 	2
attr description  "Warning Received"
scalar FranciscoScenario.node[67].nic.phy80211p 	busyTime 	4.6123753232293e-05
scalar FranciscoScenario.node[67].nic.mac1609_4 	ReceivedUnicastPackets 	0
scalar FranciscoScenario.node[67].nic.mac1609_4 	ReceivedBroadcasts 	2
scalar FranciscoScenario.node[67].nic.mac1609_4 	SentPackets 	0
scalar FranciscoScenario.node[67].nic.mac1609_4 	SNIRLostPackets 	0
scalar FranciscoScenario.node[67].nic.mac1609_4 	RXTXLostPackets 	0
scalar FranciscoScenario.node[67].nic.mac1609_4 	TotalLostPackets 	0
scalar FranciscoScenario.node[67].nic.mac1609_4 	DroppedPacketsInMac 	0
scalar FranciscoScenario.node[67].nic.mac1609_4 	TooLittleTime 	0
scalar FranciscoScenario.node[67].nic.mac1609_4 	TimesIntoBackoff 	0
scalar FranciscoScenario.node[67].nic.mac1609_4 	SlotsBackoff 	0
scalar FranciscoScenario.node[67].nic.mac1609_4 	NumInternalContention 	0
scalar FranciscoScenario.node[67].nic.mac1609_4 	totalBusyTime 	0.000239999998
scalar FranciscoScenario.node[67].veinsmobility 	startTime 	3.4
scalar FranciscoScenario.node[67].veinsmobility 	totalTime 	7.8
scalar FranciscoScenario.node[67].veinsmobility 	stopTime 	11.20508895681
scalar FranciscoScenario.node[67].veinsmobility 	minSpeed 	0.25948454403202
scalar FranciscoScenario.node[67].veinsmobility 	maxSpeed 	11.851036584069
scalar FranciscoScenario.node[67].veinsmobility 	totalDistance 	55.824319342716
scalar FranciscoScenario.node[67].veinsmobility 	totalCO2Emission 	27.338429581064
scalar FranciscoScenario.node[68].appl 	newWarningReceivedSignal:count 	0
attr description  "New Warning Received"
scalar FranciscoScenario.node[68].appl 	messageReceivedSignal:count 	0
attr description  "Message Received"
scalar FranciscoScenario.node[68].appl 	beaconReceivedSignal:count 	0
attr description  "Beacon Received"
scalar FranciscoScenario.node[68].appl 	warningReceivedSignal:count 	0
attr description  "Warning Received"
scalar FranciscoScenario.node[68].nic.phy80211p 	busyTime 	0
scalar FranciscoScenario.node[68].nic.mac1609_4 	ReceivedUnicastPackets 	0
scalar FranciscoScenario.node[68].nic.mac1609_4 	ReceivedBroadcasts 	0
scalar FranciscoScenario.node[68].nic.mac1609_4 	SentPackets 	0
scalar FranciscoScenario.node[68].nic.mac1609_4 	SNIRLostPackets 	0
scalar FranciscoScenario.node[68].nic.mac1609_4 	RXTXLostPackets 	0
scalar FranciscoScenario.node[68].nic.mac1609_4 	TotalLostPackets 	0
scalar FranciscoScenario.node[68].nic.mac1609_4 	DroppedPacketsInMac 	0
scalar FranciscoScenario.node[68].nic.mac1609_4 	TooLittleTime 	0
scalar FranciscoScenario.node[68].nic.mac1609_4 	TimesIntoBackoff 	0
scalar FranciscoScenario.node[68].nic.mac1609_4 	SlotsBackoff 	0
scalar FranciscoScenario.node[68].nic.mac1609_4 	NumInternalContention 	0
scalar FranciscoScenario.node[68].nic.mac1609_4 	totalBusyTime 	0
scalar FranciscoScenario.node[68].veinsmobility 	startTime 	4.1
scalar FranciscoScenario.node[68].veinsmobility 	totalTime 	7.1
scalar FranciscoScenario.node[68].veinsmobility 	stopTime 	11.20508895681
scalar FranciscoScenario.node[68].veinsmobility 	minSpeed 	0.25874613880296
scalar FranciscoScenario.node[68].veinsmobility 	maxSpeed 	13.817104342389
scalar FranciscoScenario.node[68].veinsmobility 	totalDistance 	50.739123153231
scalar FranciscoScenario.node[68].veinsmobility 	totalCO2Emission 	33.992312316673
scalar FranciscoScenario.node[72].appl 	newWarningReceivedSignal:count 	1
attr description  "New Warning Received"
scalar FranciscoScenario.node[72].appl 	messageReceivedSignal:count 	1
attr description  "Message Received"
scalar FranciscoScenario.node[72].appl 	beaconReceivedSignal:count 	0
attr description  "Beacon Received"
scalar FranciscoScenario.node[72].appl 	warningReceivedSignal:count 	1
attr description  "Warning Received"
scalar FranciscoScenario.node[72].nic.phy80211p 	busyTime 	3.931146617156e-05
scalar FranciscoScenario.node[72].nic.mac1609_4 	ReceivedUnicastPackets 	0
scalar FranciscoScenario.node[72].nic.mac1609_4 	ReceivedBroadcasts 	1
scalar FranciscoScenario.node[72].nic.mac1609_4 	SentPackets 	0
scalar FranciscoScenario.node[72].nic.mac1609_4 	SNIRLostPackets 	0
scalar FranciscoScenario.node[72].nic.mac1609_4 	RXTXLostPackets 	0
scalar FranciscoScenario.node[72].nic.mac1609_4 	TotalLostPackets 	0
scalar FranciscoScenario.node[72].nic.mac1609_4 	DroppedPacketsInMac 	0
scalar FranciscoScenario.node[72].nic.mac1609_4 	TooLittleTime 	0
scalar FranciscoScenario.node[72].nic.mac1609_4 	TimesIntoBackoff 	0
scalar FranciscoScenario.node[72].nic.mac1609_4 	SlotsBackoff 	0
scalar FranciscoScenario.node[72].nic.mac1609_4 	NumInternalContention 	0
scalar FranciscoScenario.node[72].nic.mac1609_4 	totalBusyTime 	0.000119999999
scalar FranciscoScenario.node[72].veinsmobility 	startTime 	5.1
scalar FranciscoScenario.node[72].veinsmobility 	totalTime 	6.1
scalar FranciscoScenario.node[72].veinsmobility 	stopTime 	11.20508895681
scalar FranciscoScenario.node[72].veinsmobility 	minSpeed 	0.25533173784404
scalar FranciscoScenario.node[72].veinsmobility 	maxSpeed 	12.206221277199
scalar FranciscoScenario.node[72].veinsmobility 	totalDistance 	38.468974967626
scalar FranciscoScenario.node[72].veinsmobility 	totalCO2Emission 	27.024440924926
scalar FranciscoScenario.node[73].appl 	newWarningReceivedSignal:count 	1
attr description  "New Warning Received"
scalar FranciscoScenario.node[73].appl 	messageReceivedSignal:count 	1
attr description  "Message Received"
scalar FranciscoScenario.node[73].appl 	beaconReceivedSignal:count 	0
attr description  "Beacon Received"
scalar FranciscoScenario.node[73].appl 	warningReceivedSignal:count 	1
attr description  "Warning Received"
scalar FranciscoScenario.node[73].nic.phy80211p 	busyTime 	4.7011913020604e-05
scalar FranciscoScenario.node[73].nic.mac1609_4 	ReceivedUnicastPackets 	0
scalar FranciscoScenario.node[73].nic.mac1609_4 	ReceivedBroadcasts 	1
scalar FranciscoScenario.node[73].nic.mac1609_4 	SentPackets 	1
scalar FranciscoScenario.node[73].nic.mac1609_4 	SNIRLostPackets 	0
scalar FranciscoScenario.node[73].nic.mac1609_4 	RXTXLostPackets 	0
scalar FranciscoScenario.node[73].nic.mac1609_4 	TotalLostPackets 	0
scalar FranciscoScenario.node[73].nic.mac1609_4 	DroppedPacketsInMac 	0
scalar FranciscoScenario.node[73].nic.mac1609_4 	TooLittleTime 	0
scalar FranciscoScenario.node[73].nic.mac1609_4 	TimesIntoBackoff 	1
scalar FranciscoScenario.node[73].nic.mac1609_4 	SlotsBackoff 	2
scalar FranciscoScenario.node[73].nic.mac1609_4 	NumInternalContention 	0
scalar FranciscoScenario.node[73].nic.mac1609_4 	totalBusyTime 	0.000240999998
scalar FranciscoScenario.node[73].veinsmobility 	startTime 	6.1
scalar FranciscoScenario.node[73].veinsmobility 	totalTime 	5.1
scalar FranciscoScenario.node[73].veinsmobility 	stopTime 	11.20508895681
scalar FranciscoScenario.node[73].veinsmobility 	minSpeed 	0.2541155041093
scalar FranciscoScenario.node[73].veinsmobility 	maxSpeed 	10.171651579181
scalar FranciscoScenario.node[73].veinsmobility 	totalDistance 	30.13867798391
scalar FranciscoScenario.node[73].veinsmobility 	totalCO2Emission 	19.694502576945
scalar FranciscoScenario.node[75].appl 	newWarningReceivedSignal:count 	1
attr description  "New Warning Received"
scalar FranciscoScenario.node[75].appl 	messageReceivedSignal:count 	3
attr description  "Message Received"
scalar FranciscoScenario.node[75].appl 	beaconReceivedSignal:count 	0
attr description  "Beacon Received"
scalar FranciscoScenario.node[75].appl 	warningReceivedSignal:count 	3
attr description  "Warning Received"
scalar FranciscoScenario.node[75].nic.phy80211p 	busyTime 	0.00011692803762601
scalar FranciscoScenario.node[75].nic.mac1609_4 	ReceivedUnicastPackets 	0
scalar FranciscoScenario.node[75].nic.mac1609_4 	ReceivedBroadcasts 	3
scalar FranciscoScenario.node[75].nic.mac1609_4 	SentPackets 	0
scalar FranciscoScenario.node[75].nic.mac1609_4 	SNIRLostPackets 	0
scalar FranciscoScenario.node[75].nic.mac1609_4 	RXTXLostPackets 	0
scalar FranciscoScenario.node[75].nic.mac1609_4 	TotalLostPackets 	0
scalar FranciscoScenario.node[75].nic.mac1609_4 	DroppedPacketsInMac 	0
scalar FranciscoScenario.node[75].nic.mac1609_4 	TooLittleTime 	0
scalar FranciscoScenario.node[75].nic.mac1609_4 	TimesIntoBackoff 	0
scalar FranciscoScenario.node[75].nic.mac1609_4 	SlotsBackoff 	0
scalar FranciscoScenario.node[75].nic.mac1609_4 	NumInternalContention 	0
scalar FranciscoScenario.node[75].nic.mac1609_4 	totalBusyTime 	0.000359999997
scalar FranciscoScenario.node[75].veinsmobility 	startTime 	7.1
scalar FranciscoScenario.node[75].veinsmobility 	totalTime 	4.1
scalar FranciscoScenario.node[75].veinsmobility 	stopTime 	11.20508895681
scalar FranciscoScenario.node[75].veinsmobility 	minSpeed 	0.25062442447129
scalar FranciscoScenario.node[75].veinsmobility 	maxSpeed 	8.4610477553711
scalar FranciscoScenario.node[75].veinsmobility 	totalDistance 	18.195577463367
scalar FranciscoScenario.node[75].veinsmobility 	totalCO2Emission 	14.205639712016
scalar FranciscoScenario.node[76].appl 	newWarningReceivedSignal:count 	1
attr description  "New Warning Received"
scalar FranciscoScenario.node[76].appl 	messageReceivedSignal:count 	2
attr description  "Message Received"
scalar FranciscoScenario.node[76].appl 	beaconReceivedSignal:count 	0
attr description  "Beacon Received"
scalar FranciscoScenario.node[76].appl 	warningReceivedSignal:count 	2
attr description  "Warning Received"
scalar FranciscoScenario.node[76].nic.phy80211p 	busyTime 	7.7292470952769e-05
scalar FranciscoScenario.node[76].nic.mac1609_4 	ReceivedUnicastPackets 	0
scalar FranciscoScenario.node[76].nic.mac1609_4 	ReceivedBroadcasts 	2
scalar FranciscoScenario.node[76].nic.mac1609_4 	SentPackets 	1
scalar FranciscoScenario.node[76].nic.mac1609_4 	SNIRLostPackets 	0
scalar FranciscoScenario.node[76].nic.mac1609_4 	RXTXLostPackets 	0
scalar FranciscoScenario.node[76].nic.mac1609_4 	TotalLostPackets 	0
scalar FranciscoScenario.node[76].nic.mac1609_4 	DroppedPacketsInMac 	0
scalar FranciscoScenario.node[76].nic.mac1609_4 	TooLittleTime 	0
scalar FranciscoScenario.node[76].nic.mac1609_4 	TimesIntoBackoff 	1
scalar FranciscoScenario.node[76].nic.mac1609_4 	SlotsBackoff 	4
scalar FranciscoScenario.node[76].nic.mac1609_4 	NumInternalContention 	0
scalar FranciscoScenario.node[76].nic.mac1609_4 	totalBusyTime 	0.000360999997
scalar FranciscoScenario.node[76].veinsmobility 	startTime 	8.1
scalar FranciscoScenario.node[76].veinsmobility 	totalTime 	3.1
scalar FranciscoScenario.node[76].veinsmobility 	stopTime 	11.20508895681
scalar FranciscoScenario.node[76].veinsmobility 	minSpeed 	0.25351293192338
scalar FranciscoScenario.node[76].veinsmobility 	maxSpeed 	6.5102323474781
scalar FranciscoScenario.node[76].veinsmobility 	totalDistance 	10.959421532235
scalar FranciscoScenario.node[76].veinsmobility 	totalCO2Emission 	9.1427045940447
scalar FranciscoScenario.node[78].appl 	newWarningReceivedSignal:count 	1
attr description  "New Warning Received"
scalar FranciscoScenario.node[78].appl 	messageReceivedSignal:count 	1
attr description  "Message Received"
scalar FranciscoScenario.node[78].appl 	beaconReceivedSignal:count 	0
attr description  "Beacon Received"
scalar FranciscoScenario.node[78].appl 	warningReceivedSignal:count 	1
attr description  "Warning Received"
scalar FranciscoScenario.node[78].nic.phy80211p 	busyTime 	5.7004716409631e-05
scalar FranciscoScenario.node[78].nic.mac1609_4 	ReceivedUnicastPackets 	0
scalar FranciscoScenario.node[78].nic.mac1609_4 	ReceivedBroadcasts 	1
scalar FranciscoScenario.node[78].nic.mac1609_4 	SentPackets 	0
scalar FranciscoScenario.node[78].nic.mac1609_4 	SNIRLostPackets 	0
scalar FranciscoScenario.node[78].nic.mac1609_4 	RXTXLostPackets 	0
scalar FranciscoScenario.node[78].nic.mac1609_4 	TotalLostPackets 	0
scalar FranciscoScenario.node[78].nic.mac1609_4 	DroppedPacketsInMac 	0
scalar FranciscoScenario.node[78].nic.mac1609_4 	TooLittleTime 	0
scalar FranciscoScenario.node[78].nic.mac1609_4 	TimesIntoBackoff 	0
scalar FranciscoScenario.node[78].nic.mac1609_4 	SlotsBackoff 	0
scalar FranciscoScenario.node[78].nic.mac1609_4 	NumInternalContention 	0
scalar FranciscoScenario.node[78].nic.mac1609_4 	totalBusyTime 	0.000119999999
scalar FranciscoScenario.node[78].veinsmobility 	startTime 	9.1
scalar FranciscoScenario.node[78].veinsmobility 	totalTime 	2.1
scalar FranciscoScenario.node[78].veinsmobility 	stopTime 	11.20508895681
scalar FranciscoScenario.node[78].veinsmobility 	minSpeed 	0.25563039991469
scalar FranciscoScenario.node[78].veinsmobility 	maxSpeed 	4.4409915172667
scalar FranciscoScenario.node[78].veinsmobility 	totalDistance 	8.1256151931135
scalar FranciscoScenario.node[78].veinsmobility 	totalCO2Emission 	4.9472035779722
scalar FranciscoScenario.node[74].appl 	newWarningReceivedSignal:count 	1
attr description  "New Warning Received"
scalar FranciscoScenario.node[74].appl 	messageReceivedSignal:count 	2
attr description  "Message Received"
scalar FranciscoScenario.node[74].appl 	beaconReceivedSignal:count 	0
attr description  "Beacon Received"
scalar FranciscoScenario.node[74].appl 	warningReceivedSignal:count 	2
attr description  "Warning Received"
scalar FranciscoScenario.node[74].nic.phy80211p 	busyTime 	0.00010423251331338
scalar FranciscoScenario.node[74].nic.mac1609_4 	ReceivedUnicastPackets 	0
scalar FranciscoScenario.node[74].nic.mac1609_4 	ReceivedBroadcasts 	2
scalar FranciscoScenario.node[74].nic.mac1609_4 	SentPackets 	1
scalar FranciscoScenario.node[74].nic.mac1609_4 	SNIRLostPackets 	2
scalar FranciscoScenario.node[74].nic.mac1609_4 	RXTXLostPackets 	0
scalar FranciscoScenario.node[74].nic.mac1609_4 	TotalLostPackets 	2
scalar FranciscoScenario.node[74].nic.mac1609_4 	DroppedPacketsInMac 	0
scalar FranciscoScenario.node[74].nic.mac1609_4 	TooLittleTime 	0
scalar FranciscoScenario.node[74].nic.mac1609_4 	TimesIntoBackoff 	0
scalar FranciscoScenario.node[74].nic.mac1609_4 	SlotsBackoff 	0
scalar FranciscoScenario.node[74].nic.mac1609_4 	NumInternalContention 	0
scalar FranciscoScenario.node[74].nic.mac1609_4 	totalBusyTime 	0.000361113037
scalar FranciscoScenario.node[74].veinsmobility 	startTime 	6.6
scalar FranciscoScenario.node[74].veinsmobility 	totalTime 	4.6
scalar FranciscoScenario.node[74].veinsmobility 	stopTime 	11.20508895681
scalar FranciscoScenario.node[74].veinsmobility 	minSpeed 	13.76327932473
scalar FranciscoScenario.node[74].veinsmobility 	maxSpeed 	13.889377640586
scalar FranciscoScenario.node[74].veinsmobility 	totalDistance 	63.586139317946
scalar FranciscoScenario.node[74].veinsmobility 	totalCO2Emission 	10.398677170953
scalar FranciscoScenario.node[2].appl 	newWarningReceivedSignal:count 	1
attr description  "New Warning Received"
scalar FranciscoScenario.node[2].appl 	messageReceivedSignal:count 	2
attr description  "Message Received"
scalar FranciscoScenario.node[2].appl 	beaconReceivedSignal:count 	0
attr description  "Beacon Received"
scalar FranciscoScenario.node[2].appl 	warningReceivedSignal:count 	2
attr description  "Warning Received"
scalar FranciscoScenario.node[2].nic.phy80211p 	busyTime 	5.996948128998e-05
scalar FranciscoScenario.node[2].nic.mac1609_4 	ReceivedUnicastPackets 	0
scalar FranciscoScenario.node[2].nic.mac1609_4 	ReceivedBroadcasts 	2
scalar FranciscoScenario.node[2].nic.mac1609_4 	SentPackets 	1
scalar FranciscoScenario.node[2].nic.mac1609_4 	SNIRLostPackets 	2
scalar FranciscoScenario.node[2].nic.mac1609_4 	RXTXLostPackets 	0
scalar FranciscoScenario.node[2].nic.mac1609_4 	TotalLostPackets 	2
scalar FranciscoScenario.node[2].nic.mac1609_4 	DroppedPacketsInMac 	0
scalar FranciscoScenario.node[2].nic.mac1609_4 	TooLittleTime 	0
scalar FranciscoScenario.node[2].nic.mac1609_4 	TimesIntoBackoff 	1
scalar FranciscoScenario.node[2].nic.mac1609_4 	SlotsBackoff 	1
scalar FranciscoScenario.node[2].nic.mac1609_4 	NumInternalContention 	0
scalar FranciscoScenario.node[2].nic.mac1609_4 	totalBusyTime 	0.000519910958
scalar FranciscoScenario.node[2].veinsmobility 	startTime 	1.2
scalar FranciscoScenario.node[2].veinsmobility 	totalTime 	10
scalar FranciscoScenario.node[2].veinsmobility 	stopTime 	11.20508895681
scalar FranciscoScenario.node[2].veinsmobility 	minSpeed 	3.2194925824432
scalar FranciscoScenario.node[2].veinsmobility 	maxSpeed 	13.887401602597
scalar FranciscoScenario.node[2].veinsmobility 	totalDistance 	92.29516382358
scalar FranciscoScenario.node[2].veinsmobility 	totalCO2Emission 	23.859574901736
scalar FranciscoScenario.node[3].appl 	newWarningReceivedSignal:count 	1
attr description  "New Warning Received"
scalar FranciscoScenario.node[3].appl 	messageReceivedSignal:count 	5
attr description  "Message Received"
scalar FranciscoScenario.node[3].appl 	beaconReceivedSignal:count 	0
attr description  "Beacon Received"
scalar FranciscoScenario.node[3].appl 	warningReceivedSignal:count 	5
attr description  "Warning Received"
scalar FranciscoScenario.node[3].nic.phy80211p 	busyTime 	8.3957273805972e-05
scalar FranciscoScenario.node[3].nic.mac1609_4 	ReceivedUnicastPackets 	0
scalar FranciscoScenario.node[3].nic.mac1609_4 	ReceivedBroadcasts 	5
scalar FranciscoScenario.node[3].nic.mac1609_4 	SentPackets 	0
scalar FranciscoScenario.node[3].nic.mac1609_4 	SNIRLostPackets 	0
scalar FranciscoScenario.node[3].nic.mac1609_4 	RXTXLostPackets 	0
scalar FranciscoScenario.node[3].nic.mac1609_4 	TotalLostPackets 	0
scalar FranciscoScenario.node[3].nic.mac1609_4 	DroppedPacketsInMac 	0
scalar FranciscoScenario.node[3].nic.mac1609_4 	TooLittleTime 	0
scalar FranciscoScenario.node[3].nic.mac1609_4 	TimesIntoBackoff 	0
scalar FranciscoScenario.node[3].nic.mac1609_4 	SlotsBackoff 	0
scalar FranciscoScenario.node[3].nic.mac1609_4 	NumInternalContention 	0
scalar FranciscoScenario.node[3].nic.mac1609_4 	totalBusyTime 	0.000599999995
scalar FranciscoScenario.node[3].veinsmobility 	startTime 	1.2
scalar FranciscoScenario.node[3].veinsmobility 	totalTime 	10
scalar FranciscoScenario.node[3].veinsmobility 	stopTime 	11.20508895681
scalar FranciscoScenario.node[3].veinsmobility 	minSpeed 	11.07441806556
scalar FranciscoScenario.node[3].veinsmobility 	maxSpeed 	13.889648582141
scalar FranciscoScenario.node[3].veinsmobility 	totalDistance 	135.91579106399
scalar FranciscoScenario.node[3].veinsmobility 	totalCO2Emission 	30.375682757403
scalar FranciscoScenario.node[4].appl 	newWarningReceivedSignal:count 	1
attr description  "New Warning Received"
scalar FranciscoScenario.node[4].appl 	messageReceivedSignal:count 	5
attr description  "Message Received"
scalar FranciscoScenario.node[4].appl 	beaconReceivedSignal:count 	0
attr description  "Beacon Received"
scalar FranciscoScenario.node[4].appl 	warningReceivedSignal:count 	5
attr description  "Warning Received"
scalar FranciscoScenario.node[4].nic.phy80211p 	busyTime 	8.3957273805972e-05
scalar FranciscoScenario.node[4].nic.mac1609_4 	ReceivedUnicastPackets 	0
scalar FranciscoScenario.node[4].nic.mac1609_4 	ReceivedBroadcasts 	5
scalar FranciscoScenario.node[4].nic.mac1609_4 	SentPackets 	0
scalar FranciscoScenario.node[4].nic.mac1609_4 	SNIRLostPackets 	0
scalar FranciscoScenario.node[4].nic.mac1609_4 	RXTXLostPackets 	0
scalar FranciscoScenario.node[4].nic.mac1609_4 	TotalLostPackets 	0
scalar FranciscoScenario.node[4].nic.mac1609_4 	DroppedPacketsInMac 	0
scalar FranciscoScenario.node[4].nic.mac1609_4 	TooLittleTime 	0
scalar FranciscoScenario.node[4].nic.mac1609_4 	TimesIntoBackoff 	0
scalar FranciscoScenario.node[4].nic.mac1609_4 	SlotsBackoff 	0
scalar FranciscoScenario.node[4].nic.mac1609_4 	NumInternalContention 	0
scalar FranciscoScenario.node[4].nic.mac1609_4 	totalBusyTime 	0.000599999995
scalar FranciscoScenario.node[4].veinsmobility 	startTime 	1.2
scalar FranciscoScenario.node[4].veinsmobility 	totalTime 	10
scalar FranciscoScenario.node[4].veinsmobility 	stopTime 	11.20508895681
scalar FranciscoScenario.node[4].veinsmobility 	minSpeed 	0.56009843726074
scalar FranciscoScenario.node[4].veinsmobility 	maxSpeed 	9.7389855956847
scalar FranciscoScenario.node[4].veinsmobility 	totalDistance 	50.272055289661
scalar FranciscoScenario.node[4].veinsmobility 	totalCO2Emission 	20.161473048296
scalar FranciscoScenario.node[71].appl 	newWarningReceivedSignal:count 	1
attr description  "New Warning Received"
scalar FranciscoScenario.node[71].appl 	messageReceivedSignal:count 	5
attr description  "Message Received"
scalar FranciscoScenario.node[71].appl 	beaconReceivedSignal:count 	0
attr description  "Beacon Received"
scalar FranciscoScenario.node[71].appl 	warningReceivedSignal:count 	5
attr description  "Warning Received"
scalar FranciscoScenario.node[71].nic.phy80211p 	busyTime 	0.00013114571845359
scalar FranciscoScenario.node[71].nic.mac1609_4 	ReceivedUnicastPackets 	0
scalar FranciscoScenario.node[71].nic.mac1609_4 	ReceivedBroadcasts 	5
scalar FranciscoScenario.node[71].nic.mac1609_4 	SentPackets 	0
scalar FranciscoScenario.node[71].nic.mac1609_4 	SNIRLostPackets 	0
scalar FranciscoScenario.node[71].nic.mac1609_4 	RXTXLostPackets 	0
scalar FranciscoScenario.node[71].nic.mac1609_4 	TotalLostPackets 	0
scalar FranciscoScenario.node[71].nic.mac1609_4 	DroppedPacketsInMac 	0
scalar FranciscoScenario.node[71].nic.mac1609_4 	TooLittleTime 	0
scalar FranciscoScenario.node[71].nic.mac1609_4 	TimesIntoBackoff 	0
scalar FranciscoScenario.node[71].nic.mac1609_4 	SlotsBackoff 	0
scalar FranciscoScenario.node[71].nic.mac1609_4 	NumInternalContention 	0
scalar FranciscoScenario.node[71].nic.mac1609_4 	totalBusyTime 	0.000599999995
scalar FranciscoScenario.node[71].veinsmobility 	startTime 	4.8
scalar FranciscoScenario.node[71].veinsmobility 	totalTime 	6.4
scalar FranciscoScenario.node[71].veinsmobility 	stopTime 	11.20508895681
scalar FranciscoScenario.node[71].veinsmobility 	minSpeed 	3.2914215603992
scalar FranciscoScenario.node[71].veinsmobility 	maxSpeed 	9.39
scalar FranciscoScenario.node[71].veinsmobility 	totalDistance 	37.023923566421
scalar FranciscoScenario.node[71].veinsmobility 	totalCO2Emission 	13.641263349498
scalar FranciscoScenario.node[5].appl 	newWarningReceivedSignal:count 	1
attr description  "New Warning Received"
scalar FranciscoScenario.node[5].appl 	messageReceivedSignal:count 	2
attr description  "Message Received"
scalar FranciscoScenario.node[5].appl 	beaconReceivedSignal:count 	0
attr description  "Beacon Received"
scalar FranciscoScenario.node[5].appl 	warningReceivedSignal:count 	2
attr description  "Warning Received"
scalar FranciscoScenario.node[5].nic.phy80211p 	busyTime 	5.996948128998e-05
scalar FranciscoScenario.node[5].nic.mac1609_4 	ReceivedUnicastPackets 	0
scalar FranciscoScenario.node[5].nic.mac1609_4 	ReceivedBroadcasts 	2
scalar FranciscoScenario.node[5].nic.mac1609_4 	SentPackets 	0
scalar FranciscoScenario.node[5].nic.mac1609_4 	SNIRLostPackets 	2
scalar FranciscoScenario.node[5].nic.mac1609_4 	RXTXLostPackets 	0
scalar FranciscoScenario.node[5].nic.mac1609_4 	TotalLostPackets 	2
scalar FranciscoScenario.node[5].nic.mac1609_4 	DroppedPacketsInMac 	0
scalar FranciscoScenario.node[5].nic.mac1609_4 	TooLittleTime 	0
scalar FranciscoScenario.node[5].nic.mac1609_4 	TimesIntoBackoff 	0
scalar FranciscoScenario.node[5].nic.mac1609_4 	SlotsBackoff 	0
scalar FranciscoScenario.node[5].nic.mac1609_4 	NumInternalContention 	0
scalar FranciscoScenario.node[5].nic.mac1609_4 	totalBusyTime 	0.000398585214
scalar FranciscoScenario.node[5].veinsmobility 	startTime 	1.2
scalar FranciscoScenario.node[5].veinsmobility 	totalTime 	10
scalar FranciscoScenario.node[5].veinsmobility 	stopTime 	11.20508895681
scalar FranciscoScenario.node[5].veinsmobility 	minSpeed 	3.3746103789746
scalar FranciscoScenario.node[5].veinsmobility 	maxSpeed 	13.884283193788
scalar FranciscoScenario.node[5].veinsmobility 	totalDistance 	96.44171694481
scalar FranciscoScenario.node[5].veinsmobility 	totalCO2Emission 	26.186143469951
scalar FranciscoScenario.node[56].appl 	newWarningReceivedSignal:count 	1
attr description  "New Warning Received"
scalar FranciscoScenario.node[56].appl 	messageReceivedSignal:count 	2
attr description  "Message Received"
scalar FranciscoScenario.node[56].appl 	beaconReceivedSignal:count 	0
attr description  "Beacon Received"
scalar FranciscoScenario.node[56].appl 	warningReceivedSignal:count 	2
attr description  "Warning Received"
scalar FranciscoScenario.node[56].nic.phy80211p 	busyTime 	7.138532359183e-05
scalar FranciscoScenario.node[56].nic.mac1609_4 	ReceivedUnicastPackets 	0
scalar FranciscoScenario.node[56].nic.mac1609_4 	ReceivedBroadcasts 	2
scalar FranciscoScenario.node[56].nic.mac1609_4 	SentPackets 	0
scalar FranciscoScenario.node[56].nic.mac1609_4 	SNIRLostPackets 	2
scalar FranciscoScenario.node[56].nic.mac1609_4 	RXTXLostPackets 	0
scalar FranciscoScenario.node[56].nic.mac1609_4 	TotalLostPackets 	2
scalar FranciscoScenario.node[56].nic.mac1609_4 	DroppedPacketsInMac 	0
scalar FranciscoScenario.node[56].nic.mac1609_4 	TooLittleTime 	0
scalar FranciscoScenario.node[56].nic.mac1609_4 	TimesIntoBackoff 	1
scalar FranciscoScenario.node[56].nic.mac1609_4 	SlotsBackoff 	4
scalar FranciscoScenario.node[56].nic.mac1609_4 	NumInternalContention 	0
scalar FranciscoScenario.node[56].nic.mac1609_4 	totalBusyTime 	0.000398541268
scalar FranciscoScenario.node[56].veinsmobility 	startTime 	2.8
scalar FranciscoScenario.node[56].veinsmobility 	totalTime 	8.4
scalar FranciscoScenario.node[56].veinsmobility 	stopTime 	11.20508895681
scalar FranciscoScenario.node[56].veinsmobility 	minSpeed 	3.4514564316436
scalar FranciscoScenario.node[56].veinsmobility 	maxSpeed 	13.889597059374
scalar FranciscoScenario.node[56].veinsmobility 	totalDistance 	76.278967978206
scalar FranciscoScenario.node[56].veinsmobility 	totalCO2Emission 	13.17187876636
scalar FranciscoScenario.node[6].appl 	newWarningReceivedSignal:count 	1
attr description  "New Warning Received"
scalar FranciscoScenario.node[6].appl 	messageReceivedSignal:count 	2
attr description  "Message Received"
scalar FranciscoScenario.node[6].appl 	beaconReceivedSignal:count 	0
attr description  "Beacon Received"
scalar FranciscoScenario.node[6].appl 	warningReceivedSignal:count 	2
attr description  "Warning Received"
scalar FranciscoScenario.node[6].nic.phy80211p 	busyTime 	5.996948128998e-05
scalar FranciscoScenario.node[6].nic.mac1609_4 	ReceivedUnicastPackets 	0
scalar FranciscoScenario.node[6].nic.mac1609_4 	ReceivedBroadcasts 	2
scalar FranciscoScenario.node[6].nic.mac1609_4 	SentPackets 	0
scalar FranciscoScenario.node[6].nic.mac1609_4 	SNIRLostPackets 	2
scalar FranciscoScenario.node[6].nic.mac1609_4 	RXTXLostPackets 	0
scalar FranciscoScenario.node[6].nic.mac1609_4 	TotalLostPackets 	2
scalar FranciscoScenario.node[6].nic.mac1609_4 	DroppedPacketsInMac 	0
scalar FranciscoScenario.node[6].nic.mac1609_4 	TooLittleTime 	0
scalar FranciscoScenario.node[6].nic.mac1609_4 	TimesIntoBackoff 	1
scalar FranciscoScenario.node[6].nic.mac1609_4 	SlotsBackoff 	2
scalar FranciscoScenario.node[6].nic.mac1609_4 	NumInternalContention 	0
scalar FranciscoScenario.node[6].nic.mac1609_4 	totalBusyTime 	0.000398998367
scalar FranciscoScenario.node[6].veinsmobility 	startTime 	1.2
scalar FranciscoScenario.node[6].veinsmobility 	totalTime 	10
scalar FranciscoScenario.node[6].veinsmobility 	stopTime 	11.20508895681
scalar FranciscoScenario.node[6].veinsmobility 	minSpeed 	3.5019196210988
scalar FranciscoScenario.node[6].veinsmobility 	maxSpeed 	13.885681089771
scalar FranciscoScenario.node[6].veinsmobility 	totalDistance 	96.985786827842
scalar FranciscoScenario.node[6].veinsmobility 	totalCO2Emission 	26.598495674237
scalar FranciscoScenario.node[7].appl 	newWarningReceivedSignal:count 	1
attr description  "New Warning Received"
scalar FranciscoScenario.node[7].appl 	messageReceivedSignal:count 	2
attr description  "Message Received"
scalar FranciscoScenario.node[7].appl 	beaconReceivedSignal:count 	0
attr description  "Beacon Received"
scalar FranciscoScenario.node[7].appl 	warningReceivedSignal:count 	2
attr description  "Warning Received"
scalar FranciscoScenario.node[7].nic.phy80211p 	busyTime 	5.996948128998e-05
scalar FranciscoScenario.node[7].nic.mac1609_4 	ReceivedUnicastPackets 	0
scalar FranciscoScenario.node[7].nic.mac1609_4 	ReceivedBroadcasts 	2
scalar FranciscoScenario.node[7].nic.mac1609_4 	SentPackets 	0
scalar FranciscoScenario.node[7].nic.mac1609_4 	SNIRLostPackets 	2
scalar FranciscoScenario.node[7].nic.mac1609_4 	RXTXLostPackets 	0
scalar FranciscoScenario.node[7].nic.mac1609_4 	TotalLostPackets 	2
scalar FranciscoScenario.node[7].nic.mac1609_4 	DroppedPacketsInMac 	0
scalar FranciscoScenario.node[7].nic.mac1609_4 	TooLittleTime 	0
scalar FranciscoScenario.node[7].nic.mac1609_4 	TimesIntoBackoff 	0
scalar FranciscoScenario.node[7].nic.mac1609_4 	SlotsBackoff 	0
scalar FranciscoScenario.node[7].nic.mac1609_4 	NumInternalContention 	0
scalar FranciscoScenario.node[7].nic.mac1609_4 	totalBusyTime 	0.00036011915
scalar FranciscoScenario.node[7].veinsmobility 	startTime 	1.2
scalar FranciscoScenario.node[7].veinsmobility 	totalTime 	10
scalar FranciscoScenario.node[7].veinsmobility 	stopTime 	11.20508895681
scalar FranciscoScenario.node[7].veinsmobility 	minSpeed 	13.760924730215
scalar FranciscoScenario.node[7].veinsmobility 	maxSpeed 	13.887971211271
scalar FranciscoScenario.node[7].veinsmobility 	totalDistance 	138.27373334353
scalar FranciscoScenario.node[7].veinsmobility 	totalCO2Emission 	22.909290596708
scalar FranciscoScenario.node[8].appl 	newWarningReceivedSignal:count 	1
attr description  "New Warning Received"
scalar FranciscoScenario.node[8].appl 	messageReceivedSignal:count 	1
attr description  "Message Received"
scalar FranciscoScenario.node[8].appl 	beaconReceivedSignal:count 	0
attr description  "Beacon Received"
scalar FranciscoScenario.node[8].appl 	warningReceivedSignal:count 	1
attr description  "Warning Received"
scalar FranciscoScenario.node[8].nic.phy80211p 	busyTime 	1.1993896257996e-05
scalar FranciscoScenario.node[8].nic.mac1609_4 	ReceivedUnicastPackets 	0
scalar FranciscoScenario.node[8].nic.mac1609_4 	ReceivedBroadcasts 	1
scalar FranciscoScenario.node[8].nic.mac1609_4 	SentPackets 	0
scalar FranciscoScenario.node[8].nic.mac1609_4 	SNIRLostPackets 	0
scalar FranciscoScenario.node[8].nic.mac1609_4 	RXTXLostPackets 	0
scalar FranciscoScenario.node[8].nic.mac1609_4 	TotalLostPackets 	0
scalar FranciscoScenario.node[8].nic.mac1609_4 	DroppedPacketsInMac 	0
scalar FranciscoScenario.node[8].nic.mac1609_4 	TooLittleTime 	0
scalar FranciscoScenario.node[8].nic.mac1609_4 	TimesIntoBackoff 	0
scalar FranciscoScenario.node[8].nic.mac1609_4 	SlotsBackoff 	0
scalar FranciscoScenario.node[8].nic.mac1609_4 	NumInternalContention 	0
scalar FranciscoScenario.node[8].nic.mac1609_4 	totalBusyTime 	0.000119999999
scalar FranciscoScenario.node[8].veinsmobility 	startTime 	1.2
scalar FranciscoScenario.node[8].veinsmobility 	totalTime 	10
scalar FranciscoScenario.node[8].veinsmobility 	stopTime 	11.20508895681
scalar FranciscoScenario.node[8].veinsmobility 	minSpeed 	27.652687809693
scalar FranciscoScenario.node[8].veinsmobility 	maxSpeed 	27.779606555924
scalar FranciscoScenario.node[8].veinsmobility 	totalDistance 	277.16538335179
scalar FranciscoScenario.node[8].veinsmobility 	totalCO2Emission 	46.723554249312
scalar FranciscoScenario.node[9].appl 	newWarningReceivedSignal:count 	0
attr description  "New Warning Received"
scalar FranciscoScenario.node[9].appl 	messageReceivedSignal:count 	0
attr description  "Message Received"
scalar FranciscoScenario.node[9].appl 	beaconReceivedSignal:count 	0
attr description  "Beacon Received"
scalar FranciscoScenario.node[9].appl 	warningReceivedSignal:count 	0
attr description  "Warning Received"
scalar FranciscoScenario.node[9].nic.phy80211p 	busyTime 	2.3987792515992e-05
scalar FranciscoScenario.node[9].nic.mac1609_4 	ReceivedUnicastPackets 	0
scalar FranciscoScenario.node[9].nic.mac1609_4 	ReceivedBroadcasts 	0
scalar FranciscoScenario.node[9].nic.mac1609_4 	SentPackets 	0
scalar FranciscoScenario.node[9].nic.mac1609_4 	SNIRLostPackets 	2
scalar FranciscoScenario.node[9].nic.mac1609_4 	RXTXLostPackets 	0
scalar FranciscoScenario.node[9].nic.mac1609_4 	TotalLostPackets 	2
scalar FranciscoScenario.node[9].nic.mac1609_4 	DroppedPacketsInMac 	0
scalar FranciscoScenario.node[9].nic.mac1609_4 	TooLittleTime 	0
scalar FranciscoScenario.node[9].nic.mac1609_4 	TimesIntoBackoff 	0
scalar FranciscoScenario.node[9].nic.mac1609_4 	SlotsBackoff 	0
scalar FranciscoScenario.node[9].nic.mac1609_4 	NumInternalContention 	0
scalar FranciscoScenario.node[9].nic.mac1609_4 	totalBusyTime 	0.000120622844
scalar FranciscoScenario.node[9].veinsmobility 	startTime 	1.2
scalar FranciscoScenario.node[9].veinsmobility 	totalTime 	10
scalar FranciscoScenario.node[9].veinsmobility 	stopTime 	11.20508895681
scalar FranciscoScenario.node[9].veinsmobility 	minSpeed 	13.761255937021
scalar FranciscoScenario.node[9].veinsmobility 	maxSpeed 	13.88991365198
scalar FranciscoScenario.node[9].veinsmobility 	totalDistance 	138.22853737532
scalar FranciscoScenario.node[9].veinsmobility 	totalCO2Emission 	23.920911911982
scalar FranciscoScenario.node[10].appl 	newWarningReceivedSignal:count 	1
attr description  "New Warning Received"
scalar FranciscoScenario.node[10].appl 	messageReceivedSignal:count 	3
attr description  "Message Received"
scalar FranciscoScenario.node[10].appl 	beaconReceivedSignal:count 	0
attr description  "Beacon Received"
scalar FranciscoScenario.node[10].appl 	warningReceivedSignal:count 	3
attr description  "Warning Received"
scalar FranciscoScenario.node[10].nic.phy80211p 	busyTime 	7.1963377547976e-05
scalar FranciscoScenario.node[10].nic.mac1609_4 	ReceivedUnicastPackets 	0
scalar FranciscoScenario.node[10].nic.mac1609_4 	ReceivedBroadcasts 	3
scalar FranciscoScenario.node[10].nic.mac1609_4 	SentPackets 	1
scalar FranciscoScenario.node[10].nic.mac1609_4 	SNIRLostPackets 	2
scalar FranciscoScenario.node[10].nic.mac1609_4 	RXTXLostPackets 	0
scalar FranciscoScenario.node[10].nic.mac1609_4 	TotalLostPackets 	2
scalar FranciscoScenario.node[10].nic.mac1609_4 	DroppedPacketsInMac 	0
scalar FranciscoScenario.node[10].nic.mac1609_4 	TooLittleTime 	0
scalar FranciscoScenario.node[10].nic.mac1609_4 	TimesIntoBackoff 	1
scalar FranciscoScenario.node[10].nic.mac1609_4 	SlotsBackoff 	4
scalar FranciscoScenario.node[10].nic.mac1609_4 	NumInternalContention 	0
scalar FranciscoScenario.node[10].nic.mac1609_4 	totalBusyTime 	0.000601789799
scalar FranciscoScenario.node[10].veinsmobility 	startTime 	1.2
scalar FranciscoScenario.node[10].veinsmobility 	totalTime 	10
scalar FranciscoScenario.node[10].veinsmobility 	stopTime 	11.20508895681
scalar FranciscoScenario.node[10].veinsmobility 	minSpeed 	13.382173863542
scalar FranciscoScenario.node[10].veinsmobility 	maxSpeed 	13.887208846542
scalar FranciscoScenario.node[10].veinsmobility 	totalDistance 	138.20038138422
scalar FranciscoScenario.node[10].veinsmobility 	totalCO2Emission 	22.750791167366
scalar FranciscoScenario.node[11].appl 	newWarningReceivedSignal:count 	1
attr description  "New Warning Received"
scalar FranciscoScenario.node[11].appl 	messageReceivedSignal:count 	3
attr description  "Message Received"
scalar FranciscoScenario.node[11].appl 	beaconReceivedSignal:count 	0
attr description  "Beacon Received"
scalar FranciscoScenario.node[11].appl 	warningReceivedSignal:count 	3
attr description  "Warning Received"
scalar FranciscoScenario.node[11].nic.phy80211p 	busyTime 	3.5981688773988e-05
scalar FranciscoScenario.node[11].nic.mac1609_4 	ReceivedUnicastPackets 	0
scalar FranciscoScenario.node[11].nic.mac1609_4 	ReceivedBroadcasts 	3
scalar FranciscoScenario.node[11].nic.mac1609_4 	SentPackets 	0
scalar FranciscoScenario.node[11].nic.mac1609_4 	SNIRLostPackets 	0
scalar FranciscoScenario.node[11].nic.mac1609_4 	RXTXLostPackets 	0
scalar FranciscoScenario.node[11].nic.mac1609_4 	TotalLostPackets 	0
scalar FranciscoScenario.node[11].nic.mac1609_4 	DroppedPacketsInMac 	0
scalar FranciscoScenario.node[11].nic.mac1609_4 	TooLittleTime 	0
scalar FranciscoScenario.node[11].nic.mac1609_4 	TimesIntoBackoff 	0
scalar FranciscoScenario.node[11].nic.mac1609_4 	SlotsBackoff 	0
scalar FranciscoScenario.node[11].nic.mac1609_4 	NumInternalContention 	0
scalar FranciscoScenario.node[11].nic.mac1609_4 	totalBusyTime 	0.000359999997
scalar FranciscoScenario.node[11].veinsmobility 	startTime 	1.2
scalar FranciscoScenario.node[11].veinsmobility 	totalTime 	10
scalar FranciscoScenario.node[11].veinsmobility 	stopTime 	11.20508895681
scalar FranciscoScenario.node[11].veinsmobility 	minSpeed 	13.76257932476
scalar FranciscoScenario.node[11].veinsmobility 	maxSpeed 	13.888728922086
scalar FranciscoScenario.node[11].veinsmobility 	totalDistance 	138.2219302604
scalar FranciscoScenario.node[11].veinsmobility 	totalCO2Emission 	23.583122791749
scalar FranciscoScenario.node[12].appl 	newWarningReceivedSignal:count 	1
attr description  "New Warning Received"
scalar FranciscoScenario.node[12].appl 	messageReceivedSignal:count 	2
attr description  "Message Received"
scalar FranciscoScenario.node[12].appl 	beaconReceivedSignal:count 	0
attr description  "Beacon Received"
scalar FranciscoScenario.node[12].appl 	warningReceivedSignal:count 	2
attr description  "Warning Received"
scalar FranciscoScenario.node[12].nic.phy80211p 	busyTime 	5.996948128998e-05
scalar FranciscoScenario.node[12].nic.mac1609_4 	ReceivedUnicastPackets 	0
scalar FranciscoScenario.node[12].nic.mac1609_4 	ReceivedBroadcasts 	2
scalar FranciscoScenario.node[12].nic.mac1609_4 	SentPackets 	0
scalar FranciscoScenario.node[12].nic.mac1609_4 	SNIRLostPackets 	2
scalar FranciscoScenario.node[12].nic.mac1609_4 	RXTXLostPackets 	0
scalar FranciscoScenario.node[12].nic.mac1609_4 	TotalLostPackets 	2
scalar FranciscoScenario.node[12].nic.mac1609_4 	DroppedPacketsInMac 	0
scalar FranciscoScenario.node[12].nic.mac1609_4 	TooLittleTime 	0
scalar FranciscoScenario.node[12].nic.mac1609_4 	TimesIntoBackoff 	0
scalar FranciscoScenario.node[12].nic.mac1609_4 	SlotsBackoff 	0
scalar FranciscoScenario.node[12].nic.mac1609_4 	NumInternalContention 	0
scalar FranciscoScenario.node[12].nic.mac1609_4 	totalBusyTime 	0.000360608859
scalar FranciscoScenario.node[12].veinsmobility 	startTime 	1.2
scalar FranciscoScenario.node[12].veinsmobility 	totalTime 	10
scalar FranciscoScenario.node[12].veinsmobility 	stopTime 	11.20508895681
scalar FranciscoScenario.node[12].veinsmobility 	minSpeed 	13.76221128545
scalar FranciscoScenario.node[12].veinsmobility 	maxSpeed 	13.889651981085
scalar FranciscoScenario.node[12].veinsmobility 	totalDistance 	138.26822979185
scalar FranciscoScenario.node[12].veinsmobility 	totalCO2Emission 	23.893157900032
scalar FranciscoScenario.node[13].appl 	newWarningReceivedSignal:count 	1
attr description  "New Warning Received"
scalar FranciscoScenario.node[13].appl 	messageReceivedSignal:count 	1
attr description  "Message Received"
scalar FranciscoScenario.node[13].appl 	beaconReceivedSignal:count 	0
attr description  "Beacon Received"
scalar FranciscoScenario.node[13].appl 	warningReceivedSignal:count 	1
attr description  "Warning Received"
scalar FranciscoScenario.node[13].nic.phy80211p 	busyTime 	2.3987792515992e-05
scalar FranciscoScenario.node[13].nic.mac1609_4 	ReceivedUnicastPackets 	0
scalar FranciscoScenario.node[13].nic.mac1609_4 	ReceivedBroadcasts 	1
scalar FranciscoScenario.node[13].nic.mac1609_4 	SentPackets 	1
scalar FranciscoScenario.node[13].nic.mac1609_4 	SNIRLostPackets 	0
scalar FranciscoScenario.node[13].nic.mac1609_4 	RXTXLostPackets 	1
scalar FranciscoScenario.node[13].nic.mac1609_4 	TotalLostPackets 	1
scalar FranciscoScenario.node[13].nic.mac1609_4 	DroppedPacketsInMac 	0
scalar FranciscoScenario.node[13].nic.mac1609_4 	TooLittleTime 	0
scalar FranciscoScenario.node[13].nic.mac1609_4 	TimesIntoBackoff 	1
scalar FranciscoScenario.node[13].nic.mac1609_4 	SlotsBackoff 	3
scalar FranciscoScenario.node[13].nic.mac1609_4 	NumInternalContention 	0
scalar FranciscoScenario.node[13].nic.mac1609_4 	totalBusyTime 	0.000242263319
scalar FranciscoScenario.node[13].veinsmobility 	startTime 	1.2
scalar FranciscoScenario.node[13].veinsmobility 	totalTime 	10
scalar FranciscoScenario.node[13].veinsmobility 	stopTime 	11.20508895681
scalar FranciscoScenario.node[13].veinsmobility 	minSpeed 	11.053521473231
scalar FranciscoScenario.node[13].veinsmobility 	maxSpeed 	13.88249653213
scalar FranciscoScenario.node[13].veinsmobility 	totalDistance 	116.93885683313
scalar FranciscoScenario.node[13].veinsmobility 	totalCO2Emission 	28.427120068456
scalar FranciscoScenario.node[14].appl 	newWarningReceivedSignal:count 	1
attr description  "New Warning Received"
scalar FranciscoScenario.node[14].appl 	messageReceivedSignal:count 	5
attr description  "Message Received"
scalar FranciscoScenario.node[14].appl 	beaconReceivedSignal:count 	0
attr description  "Beacon Received"
scalar FranciscoScenario.node[14].appl 	warningReceivedSignal:count 	5
attr description  "Warning Received"
scalar FranciscoScenario.node[14].nic.phy80211p 	busyTime 	8.3957273805972e-05
scalar FranciscoScenario.node[14].nic.mac1609_4 	ReceivedUnicastPackets 	0
scalar FranciscoScenario.node[14].nic.mac1609_4 	ReceivedBroadcasts 	5
scalar FranciscoScenario.node[14].nic.mac1609_4 	SentPackets 	0
scalar FranciscoScenario.node[14].nic.mac1609_4 	SNIRLostPackets 	0
scalar FranciscoScenario.node[14].nic.mac1609_4 	RXTXLostPackets 	0
scalar FranciscoScenario.node[14].nic.mac1609_4 	TotalLostPackets 	0
scalar FranciscoScenario.node[14].nic.mac1609_4 	DroppedPacketsInMac 	0
scalar FranciscoScenario.node[14].nic.mac1609_4 	TooLittleTime 	0
scalar FranciscoScenario.node[14].nic.mac1609_4 	TimesIntoBackoff 	0
scalar FranciscoScenario.node[14].nic.mac1609_4 	SlotsBackoff 	0
scalar FranciscoScenario.node[14].nic.mac1609_4 	NumInternalContention 	0
scalar FranciscoScenario.node[14].nic.mac1609_4 	totalBusyTime 	0.000599999995
scalar FranciscoScenario.node[14].veinsmobility 	startTime 	1.2
scalar FranciscoScenario.node[14].veinsmobility 	totalTime 	10
scalar FranciscoScenario.node[14].veinsmobility 	stopTime 	11.20508895681
scalar FranciscoScenario.node[14].veinsmobility 	minSpeed 	15.520260779534
scalar FranciscoScenario.node[14].veinsmobility 	maxSpeed 	15.648822200354
scalar FranciscoScenario.node[14].veinsmobility 	totalDistance 	155.81189379008
scalar FranciscoScenario.node[14].veinsmobility 	totalCO2Emission 	25.160802766344
scalar FranciscoScenario.node[55].appl 	newWarningReceivedSignal:count 	1
attr description  "New Warning Received"
scalar FranciscoScenario.node[55].appl 	messageReceivedSignal:count 	5
attr description  "Message Received"
scalar FranciscoScenario.node[55].appl 	beaconReceivedSignal:count 	0
attr description  "Beacon Received"
scalar FranciscoScenario.node[55].appl 	warningReceivedSignal:count 	5
attr description  "Warning Received"
scalar FranciscoScenario.node[55].nic.phy80211p 	busyTime 	9.8764398263855e-05
scalar FranciscoScenario.node[55].nic.mac1609_4 	ReceivedUnicastPackets 	0
scalar FranciscoScenario.node[55].nic.mac1609_4 	ReceivedBroadcasts 	5
scalar FranciscoScenario.node[55].nic.mac1609_4 	SentPackets 	0
scalar FranciscoScenario.node[55].nic.mac1609_4 	SNIRLostPackets 	0
scalar FranciscoScenario.node[55].nic.mac1609_4 	RXTXLostPackets 	0
scalar FranciscoScenario.node[55].nic.mac1609_4 	TotalLostPackets 	0
scalar FranciscoScenario.node[55].nic.mac1609_4 	DroppedPacketsInMac 	0
scalar FranciscoScenario.node[55].nic.mac1609_4 	TooLittleTime 	0
scalar FranciscoScenario.node[55].nic.mac1609_4 	TimesIntoBackoff 	0
scalar FranciscoScenario.node[55].nic.mac1609_4 	SlotsBackoff 	0
scalar FranciscoScenario.node[55].nic.mac1609_4 	NumInternalContention 	0
scalar FranciscoScenario.node[55].nic.mac1609_4 	totalBusyTime 	0.000599999995
scalar FranciscoScenario.node[55].veinsmobility 	startTime 	2.7
scalar FranciscoScenario.node[55].veinsmobility 	totalTime 	8.5
scalar FranciscoScenario.node[55].veinsmobility 	stopTime 	11.20508895681
scalar FranciscoScenario.node[55].veinsmobility 	minSpeed 	15.477574900037
scalar FranciscoScenario.node[55].veinsmobility 	maxSpeed 	15.649380110847
scalar FranciscoScenario.node[55].veinsmobility 	totalDistance 	132.41256704576
scalar FranciscoScenario.node[55].veinsmobility 	totalCO2Emission 	21.289433954134
scalar FranciscoScenario.node[15].appl 	newWarningReceivedSignal:count 	1
attr description  "New Warning Received"
scalar FranciscoScenario.node[15].appl 	messageReceivedSignal:count 	3
attr description  "Message Received"
scalar FranciscoScenario.node[15].appl 	beaconReceivedSignal:count 	0
attr description  "Beacon Received"
scalar FranciscoScenario.node[15].appl 	warningReceivedSignal:count 	3
attr description  "Warning Received"
scalar FranciscoScenario.node[15].nic.phy80211p 	busyTime 	4.7975585031984e-05
scalar FranciscoScenario.node[15].nic.mac1609_4 	ReceivedUnicastPackets 	0
scalar FranciscoScenario.node[15].nic.mac1609_4 	ReceivedBroadcasts 	3
scalar FranciscoScenario.node[15].nic.mac1609_4 	SentPackets 	0
scalar FranciscoScenario.node[15].nic.mac1609_4 	SNIRLostPackets 	0
scalar FranciscoScenario.node[15].nic.mac1609_4 	RXTXLostPackets 	0
scalar FranciscoScenario.node[15].nic.mac1609_4 	TotalLostPackets 	0
scalar FranciscoScenario.node[15].nic.mac1609_4 	DroppedPacketsInMac 	0
scalar FranciscoScenario.node[15].nic.mac1609_4 	TooLittleTime 	0
scalar FranciscoScenario.node[15].nic.mac1609_4 	TimesIntoBackoff 	0
scalar FranciscoScenario.node[15].nic.mac1609_4 	SlotsBackoff 	0
scalar FranciscoScenario.node[15].nic.mac1609_4 	NumInternalContention 	0
scalar FranciscoScenario.node[15].nic.mac1609_4 	totalBusyTime 	0.000359999997
scalar FranciscoScenario.node[15].veinsmobility 	startTime 	1.2
scalar FranciscoScenario.node[15].veinsmobility 	totalTime 	10
scalar FranciscoScenario.node[15].veinsmobility 	stopTime 	11.20508895681
scalar FranciscoScenario.node[15].veinsmobility 	minSpeed 	3.4964773113623
scalar FranciscoScenario.node[15].veinsmobility 	maxSpeed 	13.889992804453
scalar FranciscoScenario.node[15].veinsmobility 	totalDistance 	97.398581339669
scalar FranciscoScenario.node[15].veinsmobility 	totalCO2Emission 	26.672759275209
scalar FranciscoScenario.node[16].appl 	newWarningReceivedSignal:count 	1
attr description  "New Warning Received"
scalar FranciscoScenario.node[16].appl 	messageReceivedSignal:count 	5
attr description  "Message Received"
scalar FranciscoScenario.node[16].appl 	beaconReceivedSignal:count 	0
attr description  "Beacon Received"
scalar FranciscoScenario.node[16].appl 	warningReceivedSignal:count 	5
attr description  "Warning Received"
scalar FranciscoScenario.node[16].nic.phy80211p 	busyTime 	8.3957273805972e-05
scalar FranciscoScenario.node[16].nic.mac1609_4 	ReceivedUnicastPackets 	0
scalar FranciscoScenario.node[16].nic.mac1609_4 	ReceivedBroadcasts 	5
scalar FranciscoScenario.node[16].nic.mac1609_4 	SentPackets 	0
scalar FranciscoScenario.node[16].nic.mac1609_4 	SNIRLostPackets 	0
scalar FranciscoScenario.node[16].nic.mac1609_4 	RXTXLostPackets 	0
scalar FranciscoScenario.node[16].nic.mac1609_4 	TotalLostPackets 	0
scalar FranciscoScenario.node[16].nic.mac1609_4 	DroppedPacketsInMac 	0
scalar FranciscoScenario.node[16].nic.mac1609_4 	TooLittleTime 	0
scalar FranciscoScenario.node[16].nic.mac1609_4 	TimesIntoBackoff 	0
scalar FranciscoScenario.node[16].nic.mac1609_4 	SlotsBackoff 	0
scalar FranciscoScenario.node[16].nic.mac1609_4 	NumInternalContention 	0
scalar FranciscoScenario.node[16].nic.mac1609_4 	totalBusyTime 	0.000599999995
scalar FranciscoScenario.node[16].veinsmobility 	startTime 	1.2
scalar FranciscoScenario.node[16].veinsmobility 	totalTime 	10
scalar FranciscoScenario.node[16].veinsmobility 	stopTime 	11.20508895681
scalar FranciscoScenario.node[16].veinsmobility 	minSpeed 	3.1948012828406
scalar FranciscoScenario.node[16].veinsmobility 	maxSpeed 	13.877448550137
scalar FranciscoScenario.node[16].veinsmobility 	totalDistance 	91.894869406473
scalar FranciscoScenario.node[16].veinsmobility 	totalCO2Emission 	23.102418952865
scalar FranciscoScenario.node[17].appl 	newWarningReceivedSignal:count 	1
attr description  "New Warning Received"
scalar FranciscoScenario.node[17].appl 	messageReceivedSignal:count 	2
attr description  "Message Received"
scalar FranciscoScenario.node[17].appl 	beaconReceivedSignal:count 	0
attr description  "Beacon Received"
scalar FranciscoScenario.node[17].appl 	warningReceivedSignal:count 	2
attr description  "Warning Received"
scalar FranciscoScenario.node[17].nic.phy80211p 	busyTime 	2.3987792515992e-05
scalar FranciscoScenario.node[17].nic.mac1609_4 	ReceivedUnicastPackets 	0
scalar FranciscoScenario.node[17].nic.mac1609_4 	ReceivedBroadcasts 	2
scalar FranciscoScenario.node[17].nic.mac1609_4 	SentPackets 	0
scalar FranciscoScenario.node[17].nic.mac1609_4 	SNIRLostPackets 	0
scalar FranciscoScenario.node[17].nic.mac1609_4 	RXTXLostPackets 	0
scalar FranciscoScenario.node[17].nic.mac1609_4 	TotalLostPackets 	0
scalar FranciscoScenario.node[17].nic.mac1609_4 	DroppedPacketsInMac 	0
scalar FranciscoScenario.node[17].nic.mac1609_4 	TooLittleTime 	0
scalar FranciscoScenario.node[17].nic.mac1609_4 	TimesIntoBackoff 	0
scalar FranciscoScenario.node[17].nic.mac1609_4 	SlotsBackoff 	0
scalar FranciscoScenario.node[17].nic.mac1609_4 	NumInternalContention 	0
scalar FranciscoScenario.node[17].nic.mac1609_4 	totalBusyTime 	0.000239999998
scalar FranciscoScenario.node[17].veinsmobility 	startTime 	1.2
scalar FranciscoScenario.node[17].veinsmobility 	totalTime 	10
scalar FranciscoScenario.node[17].veinsmobility 	stopTime 	11.20508895681
scalar FranciscoScenario.node[17].veinsmobility 	minSpeed 	13.760093861592
scalar FranciscoScenario.node[17].veinsmobility 	maxSpeed 	13.886365800989
scalar FranciscoScenario.node[17].veinsmobility 	totalDistance 	138.21561158004
scalar FranciscoScenario.node[17].veinsmobility 	totalCO2Emission 	23.170392664824
scalar FranciscoScenario.node[18].appl 	newWarningReceivedSignal:count 	0
attr description  "New Warning Received"
scalar FranciscoScenario.node[18].appl 	messageReceivedSignal:count 	0
attr description  "Message Received"
scalar FranciscoScenario.node[18].appl 	beaconReceivedSignal:count 	0
attr description  "Beacon Received"
scalar FranciscoScenario.node[18].appl 	warningReceivedSignal:count 	0
attr description  "Warning Received"
scalar FranciscoScenario.node[18].nic.phy80211p 	busyTime 	2.3987792515992e-05
scalar FranciscoScenario.node[18].nic.mac1609_4 	ReceivedUnicastPackets 	0
scalar FranciscoScenario.node[18].nic.mac1609_4 	ReceivedBroadcasts 	0
scalar FranciscoScenario.node[18].nic.mac1609_4 	SentPackets 	0
scalar FranciscoScenario.node[18].nic.mac1609_4 	SNIRLostPackets 	2
scalar FranciscoScenario.node[18].nic.mac1609_4 	RXTXLostPackets 	0
scalar FranciscoScenario.node[18].nic.mac1609_4 	TotalLostPackets 	2
scalar FranciscoScenario.node[18].nic.mac1609_4 	DroppedPacketsInMac 	0
scalar FranciscoScenario.node[18].nic.mac1609_4 	TooLittleTime 	0
scalar FranciscoScenario.node[18].nic.mac1609_4 	TimesIntoBackoff 	0
scalar FranciscoScenario.node[18].nic.mac1609_4 	SlotsBackoff 	0
scalar FranciscoScenario.node[18].nic.mac1609_4 	NumInternalContention 	0
scalar FranciscoScenario.node[18].nic.mac1609_4 	totalBusyTime 	0.000120387156
scalar FranciscoScenario.node[18].veinsmobility 	startTime 	1.2
scalar FranciscoScenario.node[18].veinsmobility 	totalTime 	10
scalar FranciscoScenario.node[18].veinsmobility 	stopTime 	11.20508895681
scalar FranciscoScenario.node[18].veinsmobility 	minSpeed 	3.4423785939266
scalar FranciscoScenario.node[18].veinsmobility 	maxSpeed 	13.888730363841
scalar FranciscoScenario.node[18].veinsmobility 	totalDistance 	97.142590499641
scalar FranciscoScenario.node[18].veinsmobility 	totalCO2Emission 	27.126099127204
scalar FranciscoScenario.node[19].appl 	newWarningReceivedSignal:count 	1
attr description  "New Warning Received"
scalar FranciscoScenario.node[19].appl 	messageReceivedSignal:count 	6
attr description  "Message Received"
scalar FranciscoScenario.node[19].appl 	beaconReceivedSignal:count 	0
attr description  "Beacon Received"
scalar FranciscoScenario.node[19].appl 	warningReceivedSignal:count 	6
attr description  "Warning Received"
scalar FranciscoScenario.node[19].nic.phy80211p 	busyTime 	8.3957273805972e-05
scalar FranciscoScenario.node[19].nic.mac1609_4 	ReceivedUnicastPackets 	0
scalar FranciscoScenario.node[19].nic.mac1609_4 	ReceivedBroadcasts 	6
scalar FranciscoScenario.node[19].nic.mac1609_4 	SentPackets 	0
scalar FranciscoScenario.node[19].nic.mac1609_4 	SNIRLostPackets 	0
scalar FranciscoScenario.node[19].nic.mac1609_4 	RXTXLostPackets 	0
scalar FranciscoScenario.node[19].nic.mac1609_4 	TotalLostPackets 	0
scalar FranciscoScenario.node[19].nic.mac1609_4 	DroppedPacketsInMac 	0
scalar FranciscoScenario.node[19].nic.mac1609_4 	TooLittleTime 	0
scalar FranciscoScenario.node[19].nic.mac1609_4 	TimesIntoBackoff 	0
scalar FranciscoScenario.node[19].nic.mac1609_4 	SlotsBackoff 	0
scalar FranciscoScenario.node[19].nic.mac1609_4 	NumInternalContention 	0
scalar FranciscoScenario.node[19].nic.mac1609_4 	totalBusyTime 	0.000719999994
scalar FranciscoScenario.node[19].veinsmobility 	startTime 	1.2
scalar FranciscoScenario.node[19].veinsmobility 	totalTime 	10
scalar FranciscoScenario.node[19].veinsmobility 	stopTime 	11.20508895681
scalar FranciscoScenario.node[19].veinsmobility 	minSpeed 	13.760202274094
scalar FranciscoScenario.node[19].veinsmobility 	maxSpeed 	13.889820163865
scalar FranciscoScenario.node[19].veinsmobility 	totalDistance 	138.21637170263
scalar FranciscoScenario.node[19].veinsmobility 	totalCO2Emission 	23.658816882652
scalar FranciscoScenario.node[20].appl 	newWarningReceivedSignal:count 	1
attr description  "New Warning Received"
scalar FranciscoScenario.node[20].appl 	messageReceivedSignal:count 	2
attr description  "Message Received"
scalar FranciscoScenario.node[20].appl 	beaconReceivedSignal:count 	0
attr description  "Beacon Received"
scalar FranciscoScenario.node[20].appl 	warningReceivedSignal:count 	2
attr description  "Warning Received"
scalar FranciscoScenario.node[20].nic.phy80211p 	busyTime 	2.3987792515992e-05
scalar FranciscoScenario.node[20].nic.mac1609_4 	ReceivedUnicastPackets 	0
scalar FranciscoScenario.node[20].nic.mac1609_4 	ReceivedBroadcasts 	2
scalar FranciscoScenario.node[20].nic.mac1609_4 	SentPackets 	0
scalar FranciscoScenario.node[20].nic.mac1609_4 	SNIRLostPackets 	0
scalar FranciscoScenario.node[20].nic.mac1609_4 	RXTXLostPackets 	0
scalar FranciscoScenario.node[20].nic.mac1609_4 	TotalLostPackets 	0
scalar FranciscoScenario.node[20].nic.mac1609_4 	DroppedPacketsInMac 	0
scalar FranciscoScenario.node[20].nic.mac1609_4 	TooLittleTime 	0
scalar FranciscoScenario.node[20].nic.mac1609_4 	TimesIntoBackoff 	0
scalar FranciscoScenario.node[20].nic.mac1609_4 	SlotsBackoff 	0
scalar FranciscoScenario.node[20].nic.mac1609_4 	NumInternalContention 	0
scalar FranciscoScenario.node[20].nic.mac1609_4 	totalBusyTime 	0.000239999998
scalar FranciscoScenario.node[20].veinsmobility 	startTime 	1.2
scalar FranciscoScenario.node[20].veinsmobility 	totalTime 	10
scalar FranciscoScenario.node[20].veinsmobility 	stopTime 	11.20508895681
scalar FranciscoScenario.node[20].veinsmobility 	minSpeed 	13.760149889628
scalar FranciscoScenario.node[20].veinsmobility 	maxSpeed 	13.889309693503
scalar FranciscoScenario.node[20].veinsmobility 	totalDistance 	138.24493017579
scalar FranciscoScenario.node[20].veinsmobility 	totalCO2Emission 	23.679638339711
scalar FranciscoScenario.node[57].appl 	newWarningReceivedSignal:count 	1
attr description  "New Warning Received"
scalar FranciscoScenario.node[57].appl 	messageReceivedSignal:count 	3
attr description  "Message Received"
scalar FranciscoScenario.node[57].appl 	beaconReceivedSignal:count 	0
attr description  "Beacon Received"
scalar FranciscoScenario.node[57].appl 	warningReceivedSignal:count 	3
attr description  "Warning Received"
scalar FranciscoScenario.node[57].nic.phy80211p 	busyTime 	4.2831194155098e-05
scalar FranciscoScenario.node[57].nic.mac1609_4 	ReceivedUnicastPackets 	0
scalar FranciscoScenario.node[57].nic.mac1609_4 	ReceivedBroadcasts 	3
scalar FranciscoScenario.node[57].nic.mac1609_4 	SentPackets 	0
scalar FranciscoScenario.node[57].nic.mac1609_4 	SNIRLostPackets 	0
scalar FranciscoScenario.node[57].nic.mac1609_4 	RXTXLostPackets 	0
scalar FranciscoScenario.node[57].nic.mac1609_4 	TotalLostPackets 	0
scalar FranciscoScenario.node[57].nic.mac1609_4 	DroppedPacketsInMac 	0
scalar FranciscoScenario.node[57].nic.mac1609_4 	TooLittleTime 	0
scalar FranciscoScenario.node[57].nic.mac1609_4 	TimesIntoBackoff 	0
scalar FranciscoScenario.node[57].nic.mac1609_4 	SlotsBackoff 	0
scalar FranciscoScenario.node[57].nic.mac1609_4 	NumInternalContention 	0
scalar FranciscoScenario.node[57].nic.mac1609_4 	totalBusyTime 	0.000359999997
scalar FranciscoScenario.node[57].veinsmobility 	startTime 	2.8
scalar FranciscoScenario.node[57].veinsmobility 	totalTime 	8.4
scalar FranciscoScenario.node[57].veinsmobility 	stopTime 	11.20508895681
scalar FranciscoScenario.node[57].veinsmobility 	minSpeed 	13.762728580637
scalar FranciscoScenario.node[57].veinsmobility 	maxSpeed 	13.889325349405
scalar FranciscoScenario.node[57].veinsmobility 	totalDistance 	116.14868339383
scalar FranciscoScenario.node[57].veinsmobility 	totalCO2Emission 	18.369053933804
scalar FranciscoScenario.node[21].appl 	newWarningReceivedSignal:count 	1
attr description  "New Warning Received"
scalar FranciscoScenario.node[21].appl 	messageReceivedSignal:count 	5
attr description  "Message Received"
scalar FranciscoScenario.node[21].appl 	beaconReceivedSignal:count 	0
attr description  "Beacon Received"
scalar FranciscoScenario.node[21].appl 	warningReceivedSignal:count 	5
attr description  "Warning Received"
scalar FranciscoScenario.node[21].nic.phy80211p 	busyTime 	8.3957273805972e-05
scalar FranciscoScenario.node[21].nic.mac1609_4 	ReceivedUnicastPackets 	0
scalar FranciscoScenario.node[21].nic.mac1609_4 	ReceivedBroadcasts 	5
scalar FranciscoScenario.node[21].nic.mac1609_4 	SentPackets 	0
scalar FranciscoScenario.node[21].nic.mac1609_4 	SNIRLostPackets 	0
scalar FranciscoScenario.node[21].nic.mac1609_4 	RXTXLostPackets 	0
scalar FranciscoScenario.node[21].nic.mac1609_4 	TotalLostPackets 	0
scalar FranciscoScenario.node[21].nic.mac1609_4 	DroppedPacketsInMac 	0
scalar FranciscoScenario.node[21].nic.mac1609_4 	TooLittleTime 	0
scalar FranciscoScenario.node[21].nic.mac1609_4 	TimesIntoBackoff 	0
scalar FranciscoScenario.node[21].nic.mac1609_4 	SlotsBackoff 	0
scalar FranciscoScenario.node[21].nic.mac1609_4 	NumInternalContention 	0
scalar FranciscoScenario.node[21].nic.mac1609_4 	totalBusyTime 	0.000599999995
scalar FranciscoScenario.node[21].veinsmobility 	startTime 	1.2
scalar FranciscoScenario.node[21].veinsmobility 	totalTime 	10
scalar FranciscoScenario.node[21].veinsmobility 	stopTime 	11.20508895681
scalar FranciscoScenario.node[21].veinsmobility 	minSpeed 	13.761358360548
scalar FranciscoScenario.node[21].veinsmobility 	maxSpeed 	13.889990419396
scalar FranciscoScenario.node[21].veinsmobility 	totalDistance 	138.29218658809
scalar FranciscoScenario.node[21].veinsmobility 	totalCO2Emission 	23.232729957507
scalar FranciscoScenario.node[22].appl 	newWarningReceivedSignal:count 	0
attr description  "New Warning Received"
scalar FranciscoScenario.node[22].appl 	messageReceivedSignal:count 	0
attr description  "Message Received"
scalar FranciscoScenario.node[22].appl 	beaconReceivedSignal:count 	0
attr description  "Beacon Received"
scalar FranciscoScenario.node[22].appl 	warningReceivedSignal:count 	0
attr description  "Warning Received"
scalar FranciscoScenario.node[22].nic.phy80211p 	busyTime 	3.5981688773988e-05
scalar FranciscoScenario.node[22].nic.mac1609_4 	ReceivedUnicastPackets 	0
scalar FranciscoScenario.node[22].nic.mac1609_4 	ReceivedBroadcasts 	0
scalar FranciscoScenario.node[22].nic.mac1609_4 	SentPackets 	0
scalar FranciscoScenario.node[22].nic.mac1609_4 	SNIRLostPackets 	2
scalar FranciscoScenario.node[22].nic.mac1609_4 	RXTXLostPackets 	0
scalar FranciscoScenario.node[22].nic.mac1609_4 	TotalLostPackets 	2
scalar FranciscoScenario.node[22].nic.mac1609_4 	DroppedPacketsInMac 	0
scalar FranciscoScenario.node[22].nic.mac1609_4 	TooLittleTime 	0
scalar FranciscoScenario.node[22].nic.mac1609_4 	TimesIntoBackoff 	0
scalar FranciscoScenario.node[22].nic.mac1609_4 	SlotsBackoff 	0
scalar FranciscoScenario.node[22].nic.mac1609_4 	NumInternalContention 	0
scalar FranciscoScenario.node[22].nic.mac1609_4 	totalBusyTime 	0.000120958004
scalar FranciscoScenario.node[22].veinsmobility 	startTime 	1.2
scalar FranciscoScenario.node[22].veinsmobility 	totalTime 	10
scalar FranciscoScenario.node[22].veinsmobility 	stopTime 	11.20508895681
scalar FranciscoScenario.node[22].veinsmobility 	minSpeed 	13.760191545244
scalar FranciscoScenario.node[22].veinsmobility 	maxSpeed 	13.888797761106
scalar FranciscoScenario.node[22].veinsmobility 	totalDistance 	138.29248956449
scalar FranciscoScenario.node[22].veinsmobility 	totalCO2Emission 	23.022629583758
scalar FranciscoScenario.node[58].appl 	newWarningReceivedSignal:count 	1
attr description  "New Warning Received"
scalar FranciscoScenario.node[58].appl 	messageReceivedSignal:count 	1
attr description  "Message Received"
scalar FranciscoScenario.node[58].appl 	beaconReceivedSignal:count 	0
attr description  "Beacon Received"
scalar FranciscoScenario.node[58].appl 	warningReceivedSignal:count 	1
attr description  "Warning Received"
scalar FranciscoScenario.node[58].nic.phy80211p 	busyTime 	2.8554129436732e-05
scalar FranciscoScenario.node[58].nic.mac1609_4 	ReceivedUnicastPackets 	0
scalar FranciscoScenario.node[58].nic.mac1609_4 	ReceivedBroadcasts 	1
scalar FranciscoScenario.node[58].nic.mac1609_4 	SentPackets 	0
scalar FranciscoScenario.node[58].nic.mac1609_4 	SNIRLostPackets 	0
scalar FranciscoScenario.node[58].nic.mac1609_4 	RXTXLostPackets 	0
scalar FranciscoScenario.node[58].nic.mac1609_4 	TotalLostPackets 	0
scalar FranciscoScenario.node[58].nic.mac1609_4 	DroppedPacketsInMac 	0
scalar FranciscoScenario.node[58].nic.mac1609_4 	TooLittleTime 	0
scalar FranciscoScenario.node[58].nic.mac1609_4 	TimesIntoBackoff 	0
scalar FranciscoScenario.node[58].nic.mac1609_4 	SlotsBackoff 	0
scalar FranciscoScenario.node[58].nic.mac1609_4 	NumInternalContention 	0
scalar FranciscoScenario.node[58].nic.mac1609_4 	totalBusyTime 	0.000119999999
scalar FranciscoScenario.node[58].veinsmobility 	startTime 	2.8
scalar FranciscoScenario.node[58].veinsmobility 	totalTime 	8.4
scalar FranciscoScenario.node[58].veinsmobility 	stopTime 	11.20508895681
scalar FranciscoScenario.node[58].veinsmobility 	minSpeed 	13.760074563604
scalar FranciscoScenario.node[58].veinsmobility 	maxSpeed 	13.888870310558
scalar FranciscoScenario.node[58].veinsmobility 	totalDistance 	116.14323840307
scalar FranciscoScenario.node[58].veinsmobility 	totalCO2Emission 	19.25202217266
scalar FranciscoScenario.node[23].appl 	newWarningReceivedSignal:count 	1
attr description  "New Warning Received"
scalar FranciscoScenario.node[23].appl 	messageReceivedSignal:count 	3
attr description  "Message Received"
scalar FranciscoScenario.node[23].appl 	beaconReceivedSignal:count 	0
attr description  "Beacon Received"
scalar FranciscoScenario.node[23].appl 	warningReceivedSignal:count 	3
attr description  "Warning Received"
scalar FranciscoScenario.node[23].nic.phy80211p 	busyTime 	3.5981688773988e-05
scalar FranciscoScenario.node[23].nic.mac1609_4 	ReceivedUnicastPackets 	0
scalar FranciscoScenario.node[23].nic.mac1609_4 	ReceivedBroadcasts 	3
scalar FranciscoScenario.node[23].nic.mac1609_4 	SentPackets 	0
scalar FranciscoScenario.node[23].nic.mac1609_4 	SNIRLostPackets 	0
scalar FranciscoScenario.node[23].nic.mac1609_4 	RXTXLostPackets 	0
scalar FranciscoScenario.node[23].nic.mac1609_4 	TotalLostPackets 	0
scalar FranciscoScenario.node[23].nic.mac1609_4 	DroppedPacketsInMac 	0
scalar FranciscoScenario.node[23].nic.mac1609_4 	TooLittleTime 	0
scalar FranciscoScenario.node[23].nic.mac1609_4 	TimesIntoBackoff 	0
scalar FranciscoScenario.node[23].nic.mac1609_4 	SlotsBackoff 	0
scalar FranciscoScenario.node[23].nic.mac1609_4 	NumInternalContention 	0
scalar FranciscoScenario.node[23].nic.mac1609_4 	totalBusyTime 	0.000359999997
scalar FranciscoScenario.node[23].veinsmobility 	startTime 	1.2
scalar FranciscoScenario.node[23].veinsmobility 	totalTime 	10
scalar FranciscoScenario.node[23].veinsmobility 	stopTime 	11.20508895681
scalar FranciscoScenario.node[23].veinsmobility 	minSpeed 	13.760383974495
scalar FranciscoScenario.node[23].veinsmobility 	maxSpeed 	13.889929023788
scalar FranciscoScenario.node[23].veinsmobility 	totalDistance 	138.19625607305
scalar FranciscoScenario.node[23].veinsmobility 	totalCO2Emission 	23.120609258465
scalar FranciscoScenario.node[24].appl 	newWarningReceivedSignal:count 	1
attr description  "New Warning Received"
scalar FranciscoScenario.node[24].appl 	messageReceivedSignal:count 	2
attr description  "Message Received"
scalar FranciscoScenario.node[24].appl 	beaconReceivedSignal:count 	0
attr description  "Beacon Received"
scalar FranciscoScenario.node[24].appl 	warningReceivedSignal:count 	2
attr description  "Warning Received"
scalar FranciscoScenario.node[24].nic.phy80211p 	busyTime 	3.5981688773988e-05
scalar FranciscoScenario.node[24].nic.mac1609_4 	ReceivedUnicastPackets 	0
scalar FranciscoScenario.node[24].nic.mac1609_4 	ReceivedBroadcasts 	2
scalar FranciscoScenario.node[24].nic.mac1609_4 	SentPackets 	0
scalar FranciscoScenario.node[24].nic.mac1609_4 	SNIRLostPackets 	0
scalar FranciscoScenario.node[24].nic.mac1609_4 	RXTXLostPackets 	0
scalar FranciscoScenario.node[24].nic.mac1609_4 	TotalLostPackets 	0
scalar FranciscoScenario.node[24].nic.mac1609_4 	DroppedPacketsInMac 	0
scalar FranciscoScenario.node[24].nic.mac1609_4 	TooLittleTime 	0
scalar FranciscoScenario.node[24].nic.mac1609_4 	TimesIntoBackoff 	0
scalar FranciscoScenario.node[24].nic.mac1609_4 	SlotsBackoff 	0
scalar FranciscoScenario.node[24].nic.mac1609_4 	NumInternalContention 	0
scalar FranciscoScenario.node[24].nic.mac1609_4 	totalBusyTime 	0.000239999998
scalar FranciscoScenario.node[24].veinsmobility 	startTime 	1.2
scalar FranciscoScenario.node[24].veinsmobility 	totalTime 	10
scalar FranciscoScenario.node[24].veinsmobility 	stopTime 	11.20508895681
scalar FranciscoScenario.node[24].veinsmobility 	minSpeed 	3.2692918924262
scalar FranciscoScenario.node[24].veinsmobility 	maxSpeed 	13.885004694681
scalar FranciscoScenario.node[24].veinsmobility 	totalDistance 	95.735842066493
scalar FranciscoScenario.node[24].veinsmobility 	totalCO2Emission 	24.591204414013
scalar FranciscoScenario.node[59].appl 	newWarningReceivedSignal:count 	1
attr description  "New Warning Received"
scalar FranciscoScenario.node[59].appl 	messageReceivedSignal:count 	2
attr description  "Message Received"
scalar FranciscoScenario.node[59].appl 	beaconReceivedSignal:count 	0
attr description  "Beacon Received"
scalar FranciscoScenario.node[59].appl 	warningReceivedSignal:count 	2
attr description  "Warning Received"
scalar FranciscoScenario.node[59].nic.phy80211p 	busyTime 	4.2831194155098e-05
scalar FranciscoScenario.node[59].nic.mac1609_4 	ReceivedUnicastPackets 	0
scalar FranciscoScenario.node[59].nic.mac1609_4 	ReceivedBroadcasts 	2
scalar FranciscoScenario.node[59].nic.mac1609_4 	SentPackets 	0
scalar FranciscoScenario.node[59].nic.mac1609_4 	SNIRLostPackets 	0
scalar FranciscoScenario.node[59].nic.mac1609_4 	RXTXLostPackets 	0
scalar FranciscoScenario.node[59].nic.mac1609_4 	TotalLostPackets 	0
scalar FranciscoScenario.node[59].nic.mac1609_4 	DroppedPacketsInMac 	0
scalar FranciscoScenario.node[59].nic.mac1609_4 	TooLittleTime 	0
scalar FranciscoScenario.node[59].nic.mac1609_4 	TimesIntoBackoff 	0
scalar FranciscoScenario.node[59].nic.mac1609_4 	SlotsBackoff 	0
scalar FranciscoScenario.node[59].nic.mac1609_4 	NumInternalContention 	0
scalar FranciscoScenario.node[59].nic.mac1609_4 	totalBusyTime 	0.000239999998
scalar FranciscoScenario.node[59].veinsmobility 	startTime 	2.8
scalar FranciscoScenario.node[59].veinsmobility 	totalTime 	8.4
scalar FranciscoScenario.node[59].veinsmobility 	stopTime 	11.20508895681
scalar FranciscoScenario.node[59].veinsmobility 	minSpeed 	3.5712339564745
scalar FranciscoScenario.node[59].veinsmobility 	maxSpeed 	13.881006254265
scalar FranciscoScenario.node[59].veinsmobility 	totalDistance 	76.110056588979
scalar FranciscoScenario.node[59].veinsmobility 	totalCO2Emission 	13.489803191212
scalar FranciscoScenario.node[25].appl 	newWarningReceivedSignal:count 	1
attr description  "New Warning Received"
scalar FranciscoScenario.node[25].appl 	messageReceivedSignal:count 	2
attr description  "Message Received"
scalar FranciscoScenario.node[25].appl 	beaconReceivedSignal:count 	0
attr description  "Beacon Received"
scalar FranciscoScenario.node[25].appl 	warningReceivedSignal:count 	2
attr description  "Warning Received"
scalar FranciscoScenario.node[25].nic.phy80211p 	busyTime 	5.996948128998e-05
scalar FranciscoScenario.node[25].nic.mac1609_4 	ReceivedUnicastPackets 	0
scalar FranciscoScenario.node[25].nic.mac1609_4 	ReceivedBroadcasts 	2
scalar FranciscoScenario.node[25].nic.mac1609_4 	SentPackets 	0
scalar FranciscoScenario.node[25].nic.mac1609_4 	SNIRLostPackets 	2
scalar FranciscoScenario.node[25].nic.mac1609_4 	RXTXLostPackets 	0
scalar FranciscoScenario.node[25].nic.mac1609_4 	TotalLostPackets 	2
scalar FranciscoScenario.node[25].nic.mac1609_4 	DroppedPacketsInMac 	0
scalar FranciscoScenario.node[25].nic.mac1609_4 	TooLittleTime 	0
scalar FranciscoScenario.node[25].nic.mac1609_4 	TimesIntoBackoff 	0
scalar FranciscoScenario.node[25].nic.mac1609_4 	SlotsBackoff 	0
scalar FranciscoScenario.node[25].nic.mac1609_4 	NumInternalContention 	0
scalar FranciscoScenario.node[25].nic.mac1609_4 	totalBusyTime 	0.00039899897
[...]
scalar FranciscoScenario.node[46].nic.mac1609_4 	SlotsBackoff 	0
scalar FranciscoScenario.node[46].nic.mac1609_4 	NumInternalContention 	0
scalar FranciscoScenario.node[46].nic.mac1609_4 	totalBusyTime 	0.000239999998
scalar FranciscoScenario.node[46].veinsmobility 	startTime 	1.2
scalar FranciscoScenario.node[46].veinsmobility 	totalTime 	10
scalar FranciscoScenario.node[46].veinsmobility 	stopTime 	11.20508895681
scalar FranciscoScenario.node[46].veinsmobility 	minSpeed 	3.5309043772301
scalar FranciscoScenario.node[46].veinsmobility 	maxSpeed 	13.886782099754
scalar FranciscoScenario.node[46].veinsmobility 	totalDistance 	97.869480511792
scalar FranciscoScenario.node[46].veinsmobility 	totalCO2Emission 	27.555854730701
scalar FranciscoScenario.node[62].appl 	newWarningReceivedSignal:count 	1
attr description  "New Warning Received"
scalar FranciscoScenario.node[62].appl 	messageReceivedSignal:count 	1
attr description  "Message Received"
scalar FranciscoScenario.node[62].appl 	beaconReceivedSignal:count 	0
attr description  "Beacon Received"
scalar FranciscoScenario.node[62].appl 	warningReceivedSignal:count 	1
attr description  "Warning Received"
scalar FranciscoScenario.node[62].nic.phy80211p 	busyTime 	5.7108258873464e-05
scalar FranciscoScenario.node[62].nic.mac1609_4 	ReceivedUnicastPackets 	0
scalar FranciscoScenario.node[62].nic.mac1609_4 	ReceivedBroadcasts 	1
scalar FranciscoScenario.node[62].nic.mac1609_4 	SentPackets 	0
scalar FranciscoScenario.node[62].nic.mac1609_4 	SNIRLostPackets 	2
scalar FranciscoScenario.node[62].nic.mac1609_4 	RXTXLostPackets 	0
scalar FranciscoScenario.node[62].nic.mac1609_4 	TotalLostPackets 	2
scalar FranciscoScenario.node[62].nic.mac1609_4 	DroppedPacketsInMac 	0
scalar FranciscoScenario.node[62].nic.mac1609_4 	TooLittleTime 	0
scalar FranciscoScenario.node[62].nic.mac1609_4 	TimesIntoBackoff 	0
scalar FranciscoScenario.node[62].nic.mac1609_4 	SlotsBackoff 	0
scalar FranciscoScenario.node[62].nic.mac1609_4 	NumInternalContention 	0
scalar FranciscoScenario.node[62].nic.mac1609_4 	totalBusyTime 	0.000278060517
scalar FranciscoScenario.node[62].veinsmobility 	startTime 	2.8
scalar FranciscoScenario.node[62].veinsmobility 	totalTime 	8.4
scalar FranciscoScenario.node[62].veinsmobility 	stopTime 	11.20508895681
scalar FranciscoScenario.node[62].veinsmobility 	minSpeed 	3.4090169672239
scalar FranciscoScenario.node[62].veinsmobility 	maxSpeed 	13.884800935276
scalar FranciscoScenario.node[62].veinsmobility 	totalDistance 	77.031312305732
scalar FranciscoScenario.node[62].veinsmobility 	totalCO2Emission 	13.375390949152
scalar FranciscoScenario.node[47].appl 	newWarningReceivedSignal:count 	1
attr description  "New Warning Received"
scalar FranciscoScenario.node[47].appl 	messageReceivedSignal:count 	1
attr description  "Message Received"
scalar FranciscoScenario.node[47].appl 	beaconReceivedSignal:count 	0
attr description  "Beacon Received"
scalar FranciscoScenario.node[47].appl 	warningReceivedSignal:count 	1
attr description  "Warning Received"
scalar FranciscoScenario.node[47].nic.phy80211p 	busyTime 	1.1993896257996e-05
scalar FranciscoScenario.node[47].nic.mac1609_4 	ReceivedUnicastPackets 	0
scalar FranciscoScenario.node[47].nic.mac1609_4 	ReceivedBroadcasts 	1
scalar FranciscoScenario.node[47].nic.mac1609_4 	SentPackets 	0
scalar FranciscoScenario.node[47].nic.mac1609_4 	SNIRLostPackets 	0
scalar FranciscoScenario.node[47].nic.mac1609_4 	RXTXLostPackets 	0
scalar FranciscoScenario.node[47].nic.mac1609_4 	TotalLostPackets 	0
scalar FranciscoScenario.node[47].nic.mac1609_4 	DroppedPacketsInMac 	0
scalar FranciscoScenario.node[47].nic.mac1609_4 	TooLittleTime 	0
scalar FranciscoScenario.node[47].nic.mac1609_4 	TimesIntoBackoff 	0
scalar FranciscoScenario.node[47].nic.mac1609_4 	SlotsBackoff 	0
scalar FranciscoScenario.node[47].nic.mac1609_4 	NumInternalContention 	0
scalar FranciscoScenario.node[47].nic.mac1609_4 	totalBusyTime 	0.000119999999
scalar FranciscoScenario.node[47].veinsmobility 	startTime 	1.2
scalar FranciscoScenario.node[47].veinsmobility 	totalTime 	10
scalar FranciscoScenario.node[47].veinsmobility 	stopTime 	11.20508895681
scalar FranciscoScenario.node[47].veinsmobility 	minSpeed 	3.4336287714061
scalar FranciscoScenario.node[47].veinsmobility 	maxSpeed 	13.885670398574
scalar FranciscoScenario.node[47].veinsmobility 	totalDistance 	96.767080014361
scalar FranciscoScenario.node[47].veinsmobility 	totalCO2Emission 	26.648008002181
scalar FranciscoScenario.node[63].appl 	newWarningReceivedSignal:count 	1
attr description  "New Warning Received"
scalar FranciscoScenario.node[63].appl 	messageReceivedSignal:count 	1
attr description  "Message Received"
scalar FranciscoScenario.node[63].appl 	beaconReceivedSignal:count 	0
attr description  "Beacon Received"
scalar FranciscoScenario.node[63].appl 	warningReceivedSignal:count 	1
attr description  "Warning Received"
scalar FranciscoScenario.node[63].nic.phy80211p 	busyTime 	1.4277064718366e-05
scalar FranciscoScenario.node[63].nic.mac1609_4 	ReceivedUnicastPackets 	0
scalar FranciscoScenario.node[63].nic.mac1609_4 	ReceivedBroadcasts 	1
scalar FranciscoScenario.node[63].nic.mac1609_4 	SentPackets 	0
scalar FranciscoScenario.node[63].nic.mac1609_4 	SNIRLostPackets 	0
scalar FranciscoScenario.node[63].nic.mac1609_4 	RXTXLostPackets 	0
scalar FranciscoScenario.node[63].nic.mac1609_4 	TotalLostPackets 	0
scalar FranciscoScenario.node[63].nic.mac1609_4 	DroppedPacketsInMac 	0
scalar FranciscoScenario.node[63].nic.mac1609_4 	TooLittleTime 	0
scalar FranciscoScenario.node[63].nic.mac1609_4 	TimesIntoBackoff 	0
scalar FranciscoScenario.node[63].nic.mac1609_4 	SlotsBackoff 	0
scalar FranciscoScenario.node[63].nic.mac1609_4 	NumInternalContention 	0
scalar FranciscoScenario.node[63].nic.mac1609_4 	totalBusyTime 	0.000119999999
scalar FranciscoScenario.node[63].veinsmobility 	startTime 	2.8
scalar FranciscoScenario.node[63].veinsmobility 	totalTime 	8.4
scalar FranciscoScenario.node[63].veinsmobility 	stopTime 	11.20508895681
scalar FranciscoScenario.node[63].veinsmobility 	minSpeed 	3.310570604286
scalar FranciscoScenario.node[63].veinsmobility 	maxSpeed 	13.88621699892
scalar FranciscoScenario.node[63].veinsmobility 	totalDistance 	75.658201847794
scalar FranciscoScenario.node[63].veinsmobility 	totalCO2Emission 	13.273511117608
scalar FranciscoScenario.node[48].appl 	newWarningReceivedSignal:count 	1
attr description  "New Warning Received"
scalar FranciscoScenario.node[48].appl 	messageReceivedSignal:count 	4
attr description  "Message Received"
scalar FranciscoScenario.node[48].appl 	beaconReceivedSignal:count 	0
attr description  "Beacon Received"
scalar FranciscoScenario.node[48].appl 	warningReceivedSignal:count 	4
attr description  "Warning Received"
scalar FranciscoScenario.node[48].nic.phy80211p 	busyTime 	5.996948128998e-05
scalar FranciscoScenario.node[48].nic.mac1609_4 	ReceivedUnicastPackets 	0
scalar FranciscoScenario.node[48].nic.mac1609_4 	ReceivedBroadcasts 	4
scalar FranciscoScenario.node[48].nic.mac1609_4 	SentPackets 	0
scalar FranciscoScenario.node[48].nic.mac1609_4 	SNIRLostPackets 	0
scalar FranciscoScenario.node[48].nic.mac1609_4 	RXTXLostPackets 	0
scalar FranciscoScenario.node[48].nic.mac1609_4 	TotalLostPackets 	0
scalar FranciscoScenario.node[48].nic.mac1609_4 	DroppedPacketsInMac 	0
scalar FranciscoScenario.node[48].nic.mac1609_4 	TooLittleTime 	0
scalar FranciscoScenario.node[48].nic.mac1609_4 	TimesIntoBackoff 	0
scalar FranciscoScenario.node[48].nic.mac1609_4 	SlotsBackoff 	0
scalar FranciscoScenario.node[48].nic.mac1609_4 	NumInternalContention 	0
scalar FranciscoScenario.node[48].nic.mac1609_4 	totalBusyTime 	0.000479999996
scalar FranciscoScenario.node[48].veinsmobility 	startTime 	1.2
scalar FranciscoScenario.node[48].veinsmobility 	totalTime 	10
scalar FranciscoScenario.node[48].veinsmobility 	stopTime 	11.20508895681
scalar FranciscoScenario.node[48].veinsmobility 	minSpeed 	3.3080902422443
scalar FranciscoScenario.node[48].veinsmobility 	maxSpeed 	13.889843015617
scalar FranciscoScenario.node[48].veinsmobility 	totalDistance 	95.696755646158
scalar FranciscoScenario.node[48].veinsmobility 	totalCO2Emission 	24.943801877748
scalar FranciscoScenario.node[64].appl 	newWarningReceivedSignal:count 	1
attr description  "New Warning Received"
scalar FranciscoScenario.node[64].appl 	messageReceivedSignal:count 	4
attr description  "Message Received"
scalar FranciscoScenario.node[64].appl 	beaconReceivedSignal:count 	0
attr description  "Beacon Received"
scalar FranciscoScenario.node[64].appl 	warningReceivedSignal:count 	4
attr description  "Warning Received"
scalar FranciscoScenario.node[64].nic.phy80211p 	busyTime 	7.138532359183e-05
scalar FranciscoScenario.node[64].nic.mac1609_4 	ReceivedUnicastPackets 	0
scalar FranciscoScenario.node[64].nic.mac1609_4 	ReceivedBroadcasts 	4
scalar FranciscoScenario.node[64].nic.mac1609_4 	SentPackets 	0
scalar FranciscoScenario.node[64].nic.mac1609_4 	SNIRLostPackets 	0
scalar FranciscoScenario.node[64].nic.mac1609_4 	RXTXLostPackets 	0
scalar FranciscoScenario.node[64].nic.mac1609_4 	TotalLostPackets 	0
scalar FranciscoScenario.node[64].nic.mac1609_4 	DroppedPacketsInMac 	0
scalar FranciscoScenario.node[64].nic.mac1609_4 	TooLittleTime 	0
scalar FranciscoScenario.node[64].nic.mac1609_4 	TimesIntoBackoff 	0
scalar FranciscoScenario.node[64].nic.mac1609_4 	SlotsBackoff 	0
scalar FranciscoScenario.node[64].nic.mac1609_4 	NumInternalContention 	0
scalar FranciscoScenario.node[64].nic.mac1609_4 	totalBusyTime 	0.000479999996
scalar FranciscoScenario.node[64].veinsmobility 	startTime 	2.8
scalar FranciscoScenario.node[64].veinsmobility 	totalTime 	8.4
scalar FranciscoScenario.node[64].veinsmobility 	stopTime 	11.20508895681
scalar FranciscoScenario.node[64].veinsmobility 	minSpeed 	3.3135933330616
scalar FranciscoScenario.node[64].veinsmobility 	maxSpeed 	13.888975066657
scalar FranciscoScenario.node[64].veinsmobility 	totalDistance 	76.121064000483
scalar FranciscoScenario.node[64].veinsmobility 	totalCO2Emission 	13.083889192162
scalar FranciscoScenario.node[49].appl 	newWarningReceivedSignal:count 	1
attr description  "New Warning Received"
scalar FranciscoScenario.node[49].appl 	messageReceivedSignal:count 	5
attr description  "Message Received"
scalar FranciscoScenario.node[49].appl 	beaconReceivedSignal:count 	0
attr description  "Beacon Received"
scalar FranciscoScenario.node[49].appl 	warningReceivedSignal:count 	5
attr description  "Warning Received"
scalar FranciscoScenario.node[49].nic.phy80211p 	busyTime 	8.3957273805972e-05
scalar FranciscoScenario.node[49].nic.mac1609_4 	ReceivedUnicastPackets 	0
scalar FranciscoScenario.node[49].nic.mac1609_4 	ReceivedBroadcasts 	5
scalar FranciscoScenario.node[49].nic.mac1609_4 	SentPackets 	0
scalar FranciscoScenario.node[49].nic.mac1609_4 	SNIRLostPackets 	0
scalar FranciscoScenario.node[49].nic.mac1609_4 	RXTXLostPackets 	0
scalar FranciscoScenario.node[49].nic.mac1609_4 	TotalLostPackets 	0
scalar FranciscoScenario.node[49].nic.mac1609_4 	DroppedPacketsInMac 	0
scalar FranciscoScenario.node[49].nic.mac1609_4 	TooLittleTime 	0
scalar FranciscoScenario.node[49].nic.mac1609_4 	TimesIntoBackoff 	0
scalar FranciscoScenario.node[49].nic.mac1609_4 	SlotsBackoff 	0
scalar FranciscoScenario.node[49].nic.mac1609_4 	NumInternalContention 	0
scalar FranciscoScenario.node[49].nic.mac1609_4 	totalBusyTime 	0.000599999995
scalar FranciscoScenario.node[49].veinsmobility 	startTime 	1.2
scalar FranciscoScenario.node[49].veinsmobility 	totalTime 	10
scalar FranciscoScenario.node[49].veinsmobility 	stopTime 	11.20508895681
scalar FranciscoScenario.node[49].veinsmobility 	minSpeed 	0.053939764571677
scalar FranciscoScenario.node[49].veinsmobility 	maxSpeed 	7.5869046561265
scalar FranciscoScenario.node[49].veinsmobility 	totalDistance 	29.259577459617
scalar FranciscoScenario.node[49].veinsmobility 	totalCO2Emission 	18.025827730419
scalar FranciscoScenario.node[50].appl 	newWarningReceivedSignal:count 	0
attr description  "New Warning Received"
scalar FranciscoScenario.node[50].appl 	messageReceivedSignal:count 	0
attr description  "Message Received"
scalar FranciscoScenario.node[50].appl 	beaconReceivedSignal:count 	0
attr description  "Beacon Received"
scalar FranciscoScenario.node[50].appl 	warningReceivedSignal:count 	0
attr description  "Warning Received"
scalar FranciscoScenario.node[50].nic.phy80211p 	busyTime 	0
scalar FranciscoScenario.node[50].nic.mac1609_4 	ReceivedUnicastPackets 	0
scalar FranciscoScenario.node[50].nic.mac1609_4 	ReceivedBroadcasts 	0
scalar FranciscoScenario.node[50].nic.mac1609_4 	SentPackets 	0
scalar FranciscoScenario.node[50].nic.mac1609_4 	SNIRLostPackets 	0
scalar FranciscoScenario.node[50].nic.mac1609_4 	RXTXLostPackets 	0
scalar FranciscoScenario.node[50].nic.mac1609_4 	TotalLostPackets 	0
scalar FranciscoScenario.node[50].nic.mac1609_4 	DroppedPacketsInMac 	0
scalar FranciscoScenario.node[50].nic.mac1609_4 	TooLittleTime 	0
scalar FranciscoScenario.node[50].nic.mac1609_4 	TimesIntoBackoff 	0
scalar FranciscoScenario.node[50].nic.mac1609_4 	SlotsBackoff 	0
scalar FranciscoScenario.node[50].nic.mac1609_4 	NumInternalContention 	0
scalar FranciscoScenario.node[50].nic.mac1609_4 	totalBusyTime 	0
scalar FranciscoScenario.node[50].veinsmobility 	startTime 	1.2
scalar FranciscoScenario.node[50].veinsmobility 	totalTime 	10
scalar FranciscoScenario.node[50].veinsmobility 	stopTime 	11.20508895681
scalar FranciscoScenario.node[50].veinsmobility 	minSpeed 	13.760270722052
scalar FranciscoScenario.node[50].veinsmobility 	maxSpeed 	13.886757185177
scalar FranciscoScenario.node[50].veinsmobility 	totalDistance 	138.20426246213
scalar FranciscoScenario.node[50].veinsmobility 	totalCO2Emission 	23.203426478377
scalar FranciscoScenario.node[51].appl 	newWarningReceivedSignal:count 	1
attr description  "New Warning Received"
scalar FranciscoScenario.node[51].appl 	messageReceivedSignal:count 	2
attr description  "Message Received"
scalar FranciscoScenario.node[51].appl 	beaconReceivedSignal:count 	0
attr description  "Beacon Received"
scalar FranciscoScenario.node[51].appl 	warningReceivedSignal:count 	2
attr description  "Warning Received"
scalar FranciscoScenario.node[51].nic.phy80211p 	busyTime 	3.5981688773988e-05
scalar FranciscoScenario.node[51].nic.mac1609_4 	ReceivedUnicastPackets 	0
scalar FranciscoScenario.node[51].nic.mac1609_4 	ReceivedBroadcasts 	2
scalar FranciscoScenario.node[51].nic.mac1609_4 	SentPackets 	0
scalar FranciscoScenario.node[51].nic.mac1609_4 	SNIRLostPackets 	0
scalar FranciscoScenario.node[51].nic.mac1609_4 	RXTXLostPackets 	0
scalar FranciscoScenario.node[51].nic.mac1609_4 	TotalLostPackets 	0
scalar FranciscoScenario.node[51].nic.mac1609_4 	DroppedPacketsInMac 	0
scalar FranciscoScenario.node[51].nic.mac1609_4 	TooLittleTime 	0
scalar FranciscoScenario.node[51].nic.mac1609_4 	TimesIntoBackoff 	0
scalar FranciscoScenario.node[51].nic.mac1609_4 	SlotsBackoff 	0
scalar FranciscoScenario.node[51].nic.mac1609_4 	NumInternalContention 	0
scalar FranciscoScenario.node[51].nic.mac1609_4 	totalBusyTime 	0.000239999998
scalar FranciscoScenario.node[51].veinsmobility 	startTime 	1.2
scalar FranciscoScenario.node[51].veinsmobility 	totalTime 	10
scalar FranciscoScenario.node[51].veinsmobility 	stopTime 	11.20508895681
scalar FranciscoScenario.node[51].veinsmobility 	minSpeed 	3.1693843693752
scalar FranciscoScenario.node[51].veinsmobility 	maxSpeed 	22.703723840673
scalar FranciscoScenario.node[51].veinsmobility 	totalDistance 	102.36694209575
scalar FranciscoScenario.node[51].veinsmobility 	totalCO2Emission 	22.945421811797
scalar FranciscoScenario.node[52].appl 	newWarningReceivedSignal:count 	1
attr description  "New Warning Received"
scalar FranciscoScenario.node[52].appl 	messageReceivedSignal:count 	2
attr description  "Message Received"
scalar FranciscoScenario.node[52].appl 	beaconReceivedSignal:count 	0
attr description  "Beacon Received"
scalar FranciscoScenario.node[52].appl 	warningReceivedSignal:count 	2
attr description  "Warning Received"
scalar FranciscoScenario.node[52].nic.phy80211p 	busyTime 	5.996948128998e-05
scalar FranciscoScenario.node[52].nic.mac1609_4 	ReceivedUnicastPackets 	0
scalar FranciscoScenario.node[52].nic.mac1609_4 	ReceivedBroadcasts 	2
scalar FranciscoScenario.node[52].nic.mac1609_4 	SentPackets 	0
scalar FranciscoScenario.node[52].nic.mac1609_4 	SNIRLostPackets 	2
scalar FranciscoScenario.node[52].nic.mac1609_4 	RXTXLostPackets 	0
scalar FranciscoScenario.node[52].nic.mac1609_4 	TotalLostPackets 	2
scalar FranciscoScenario.node[52].nic.mac1609_4 	DroppedPacketsInMac 	0
scalar FranciscoScenario.node[52].nic.mac1609_4 	TooLittleTime 	0
scalar FranciscoScenario.node[52].nic.mac1609_4 	TimesIntoBackoff 	0
scalar FranciscoScenario.node[52].nic.mac1609_4 	SlotsBackoff 	0
scalar FranciscoScenario.node[52].nic.mac1609_4 	NumInternalContention 	0
scalar FranciscoScenario.node[52].nic.mac1609_4 	totalBusyTime 	0.000360708389
scalar FranciscoScenario.node[52].veinsmobility 	startTime 	1.2
scalar FranciscoScenario.node[52].veinsmobility 	totalTime 	10
scalar FranciscoScenario.node[52].veinsmobility 	stopTime 	11.20508895681
scalar FranciscoScenario.node[52].veinsmobility 	minSpeed 	13.762509042441
scalar FranciscoScenario.node[52].veinsmobility 	maxSpeed 	13.889029118798
scalar FranciscoScenario.node[52].veinsmobility 	totalDistance 	138.30112843337
scalar FranciscoScenario.node[52].veinsmobility 	totalCO2Emission 	24.150424984655
scalar FranciscoScenario.node[53].appl 	newWarningReceivedSignal:count 	0
attr description  "New Warning Received"
scalar FranciscoScenario.node[53].appl 	messageReceivedSignal:count 	0
attr description  "Message Received"
scalar FranciscoScenario.node[53].appl 	beaconReceivedSignal:count 	0
attr description  "Beacon Received"
scalar FranciscoScenario.node[53].appl 	warningReceivedSignal:count 	0
attr description  "Warning Received"
scalar FranciscoScenario.node[53].nic.phy80211p 	busyTime 	3.5981688773988e-05
scalar FranciscoScenario.node[53].nic.mac1609_4 	ReceivedUnicastPackets 	0
scalar FranciscoScenario.node[53].nic.mac1609_4 	ReceivedBroadcasts 	0
scalar FranciscoScenario.node[53].nic.mac1609_4 	SentPackets 	0
scalar FranciscoScenario.node[53].nic.mac1609_4 	SNIRLostPackets 	2
scalar FranciscoScenario.node[53].nic.mac1609_4 	RXTXLostPackets 	0
scalar FranciscoScenario.node[53].nic.mac1609_4 	TotalLostPackets 	2
scalar FranciscoScenario.node[53].nic.mac1609_4 	DroppedPacketsInMac 	0
scalar FranciscoScenario.node[53].nic.mac1609_4 	TooLittleTime 	0
scalar FranciscoScenario.node[53].nic.mac1609_4 	TimesIntoBackoff 	0
scalar FranciscoScenario.node[53].nic.mac1609_4 	SlotsBackoff 	0
scalar FranciscoScenario.node[53].nic.mac1609_4 	NumInternalContention 	0
scalar FranciscoScenario.node[53].nic.mac1609_4 	totalBusyTime 	0.000120354781
scalar FranciscoScenario.node[53].veinsmobility 	startTime 	1.2
scalar FranciscoScenario.node[53].veinsmobility 	totalTime 	10
scalar FranciscoScenario.node[53].veinsmobility 	stopTime 	11.20508895681
scalar FranciscoScenario.node[53].veinsmobility 	minSpeed 	11.051361739393
scalar FranciscoScenario.node[53].veinsmobility 	maxSpeed 	13.882803679097
scalar FranciscoScenario.node[53].veinsmobility 	totalDistance 	116.2531505183
scalar FranciscoScenario.node[53].veinsmobility 	totalCO2Emission 	28.741548871499
scalar FranciscoScenario.manager 	actualNumVehiclesSignal:count 	81
attr description  "Active vehicle count"
scalar FranciscoScenario.stats 	allMessagesReceivedSignal:count 	203
attr description  "All Messages Received"
scalar FranciscoScenario.stats 	allWarningsReceivedSignal:count 	203
attr description  "All Warnings Received"
scalar FranciscoScenario.stats 	allNewWarningsReceivedSignal:count 	74
attr description  "All New Warnings Received"
scalar FranciscoScenario.stats 	allBeaconsReceivedSignal:count 	0
attr description  "All Beacons Received"
